data/public_benchmarks/arpae_go/extracted/Challenge_1_Original_Dataset_2_Scenarios/Original_Dataset_Real-Time_Edition_2/Network_01R-020/scenario_4/case.raw
 0,    100, 33, 0, 0, 60.0 / Header line 1
Header line 2
Header line 3
     1,'',   138, 1, 1, 1, 1, 1.0152144, -90.658381, 1.1, 0.9, 1.1, 0.9
     2,'',   138, 1, 1, 1, 1, 1.0147581, -90.714751, 1.1, 0.9, 1.1, 0.9
     3,'',   138, 1, 1, 1, 1, 1.0107766, -93.203476, 1.1, 0.9, 1.1, 0.9
     4,'',   138, 1, 1, 1, 1, 1.0090774, -93.399749, 1.1, 0.9, 1.1, 0.9
     5,'',   138, 1, 1, 1, 1, 1.0147594, -62.572222, 1.1, 0.9, 1.1, 0.9
     6,'',   138, 1, 1, 1, 1, 1.0147325, -62.575672, 1.1, 0.9, 1.1, 0.9
     7,'',   345, 1, 1, 1, 1, 1.0325725, -86.827464, 1.1, 0.9, 1.1, 0.9
     8,'',   138, 1, 1, 1, 1, 1.025672, -88.657185, 1.1, 0.9, 1.1, 0.9
     9,'',  13.8, 2, 1, 1, 1, 1.04, -85.297008, 1.1, 0.9, 1.1, 0.9
    10,'',   138, 1, 1, 1, 1, 1.0299095, -87.46961, 1.1, 0.9, 1.1, 0.9
    11,'',   138, 1, 1, 1, 1, 1.0298922, -87.471547, 1.1, 0.9, 1.1, 0.9
    12,'',   138, 1, 1, 1, 1, 1.0140914, -84.474446, 1.1, 0.9, 1.1, 0.9
    13,'',   138, 1, 1, 1, 1, 1.0137716, -84.511179, 1.1, 0.9, 1.1, 0.9
    14,'',   345, 1, 1, 1, 1, 1.0362543, -76.995012, 1.1, 0.9, 1.1, 0.9
    15,'',   138, 1, 1, 1, 1, 1.0313843, -78.76731, 1.1, 0.9, 1.1, 0.9
    16,'',  13.8, 2, 1, 1, 1, 1.0362543, -76.995012, 1.1, 0.9, 1.1, 0.9
    17,'',  13.8, 3, 1, 1, 1, 1.04, -73.600274, 1.1, 0.9, 1.1, 0.9
    18,'',  13.8, 2, 1, 1, 1, 1.04, -72.712176, 1.1, 0.9, 1.1, 0.9
    19,'',   138, 1, 1, 1, 1, 1.0247471, -88.39082, 1.1, 0.9, 1.1, 0.9
    20,'',   138, 1, 1, 1, 1, 1.0247136, -88.395264, 1.1, 0.9, 1.1, 0.9
    21,'',   138, 1, 1, 1, 1, 1.015564, -88.382039, 1.1, 0.9, 1.1, 0.9
    22,'',   138, 1, 1, 1, 1, 1.0138973, -88.57924, 1.1, 0.9, 1.1, 0.9
    23,'',   345, 1, 1, 1, 1, 1.0353123, -80.218512, 1.1, 0.9, 1.1, 0.9
    24,'',   138, 1, 1, 1, 1, 1.0277413, -81.877104, 1.1, 0.9, 1.1, 0.9
    25,'',   138, 1, 1, 1, 1, 1.0277225, -81.879399, 1.1, 0.9, 1.1, 0.9
    26,'',   138, 1, 1, 1, 1, 1.0275656, -81.899597, 1.1, 0.9, 1.1, 0.9
    27,'',   138, 1, 1, 1, 1, 1.0021096, -85.179241, 1.1, 0.9, 1.1, 0.9
    28,'',   138, 1, 1, 1, 1, 1.001523, -85.251854, 1.1, 0.9, 1.1, 0.9
    29,'',   138, 1, 1, 1, 1, 1.0059222, -92.096942, 1.1, 0.9, 1.1, 0.9
    30,'',   138, 1, 1, 1, 1, 1.0047435, -92.237239, 1.1, 0.9, 1.1, 0.9
    31,'',   138, 1, 1, 1, 1, 1.0262337, -88.615278, 1.1, 0.9, 1.1, 0.9
    32,'',   138, 1, 1, 1, 1, 1.0261635, -88.623585, 1.1, 0.9, 1.1, 0.9
    33,'',   138, 1, 1, 1, 1, 1.0210294, -88.889075, 1.1, 0.9, 1.1, 0.9
    34,'',   138, 1, 1, 1, 1, 1.0208533, -88.909606, 1.1, 0.9, 1.1, 0.9
    35,'',   138, 1, 1, 1, 1, 1.0283439, -87.85107, 1.1, 0.9, 1.1, 0.9
    36,'',   138, 1, 1, 1, 1, 1.0280626, -87.883438, 1.1, 0.9, 1.1, 0.9
    37,'',   138, 1, 1, 1, 1, 1.006099, -71.150433, 1.1, 0.9, 1.1, 0.9
    38,'',   138, 1, 1, 1, 1, 1.0060979, -71.150585, 1.1, 0.9, 1.1, 0.9
    39,'',   345, 1, 1, 1, 1, 1.0353538, -79.945785, 1.1, 0.9, 1.1, 0.9
    40,'',   138, 1, 1, 1, 1, 1.0322054, -80.608292, 1.1, 0.9, 1.1, 0.9
    41,'',   138, 1, 1, 1, 1, 1.0317007, -80.670924, 1.1, 0.9, 1.1, 0.9
    42,'',   138, 1, 1, 1, 1, 1.0332417, -86.477299, 1.1, 0.9, 1.1, 0.9
    43,'',   138, 1, 1, 1, 1, 1.0332133, -86.480712, 1.1, 0.9, 1.1, 0.9
    44,'',   138, 1, 1, 1, 1, 1.0194367, -88.566596, 1.1, 0.9, 1.1, 0.9
    45,'',   138, 1, 1, 1, 1, 1.0194104, -88.569874, 1.1, 0.9, 1.1, 0.9
    46,'',   138, 1, 1, 1, 1, 1.0229994, -83.113742, 1.1, 0.9, 1.1, 0.9
    47,'',   138, 1, 1, 1, 1, 1.0226533, -83.155611, 1.1, 0.9, 1.1, 0.9
    48,'',   138, 1, 1, 1, 1, 1.0078663, -86.273461, 1.1, 0.9, 1.1, 0.9
    49,'',  13.8, 2, 1, 1, 1, 1.0097143, -86.07417, 1.1, 0.9, 1.1, 0.9
    50,'',  13.8, 2, 1, 1, 1, 1.0100014, -86.038972, 1.1, 0.9, 1.1, 0.9
    51,'',   138, 1, 1, 1, 1, 1.0078636, -86.273797, 1.1, 0.9, 1.1, 0.9
    52,'',   138, 1, 1, 1, 1, 1.0076982, -86.293553, 1.1, 0.9, 1.1, 0.9
    53,'',   138, 1, 1, 1, 1, 1.0128696, -91.040166, 1.1, 0.9, 1.1, 0.9
    54,'',   138, 1, 1, 1, 1, 1.0124628, -91.084404, 1.1, 0.9, 1.1, 0.9
    55,'',   138, 1, 1, 1, 1, 1.0321945, -85.288113, 1.1, 0.9, 1.1, 0.9
    56,'',   138, 1, 1, 1, 1, 1.0321786, -85.289936, 1.1, 0.9, 1.1, 0.9
    57,'',   345, 1, 1, 1, 1, 1.0269454, -81.745511, 1.1, 0.9, 1.1, 0.9
    58,'',   138, 1, 1, 1, 1, 1.0192145, -83.281132, 1.1, 0.9, 1.1, 0.9
    59,'',   138, 1, 1, 1, 1, 1.0178473, -83.452453, 1.1, 0.9, 1.1, 0.9
    60,'',   138, 1, 1, 1, 1, 1.0307087, -80.995125, 1.1, 0.9, 1.1, 0.9
    61,'',   138, 1, 1, 1, 1, 1.0307072, -80.995323, 1.1, 0.9, 1.1, 0.9
    62,'',   138, 1, 1, 1, 1, 1.0118607, -92.282381, 1.1, 0.9, 1.1, 0.9
    63,'',  13.8, 2, 1, 1, 1, 1.0145185, -92.193673, 1.1, 0.9, 1.1, 0.9
    64,'',   138, 1, 1, 1, 1, 1.0114437, -92.330014, 1.1, 0.9, 1.1, 0.9
    65,'',   345, 1, 1, 1, 1, 1.0361494, -83.848925, 1.1, 0.9, 1.1, 0.9
    66,'',   138, 1, 1, 1, 1, 1.033478, -84.738072, 1.1, 0.9, 1.1, 0.9
    67,'',   138, 1, 1, 1, 1, 1.033445, -84.74181, 1.1, 0.9, 1.1, 0.9
    68,'',   138, 1, 1, 1, 1, 1.010772, -83.458249, 1.1, 0.9, 1.1, 0.9
    69,'',   138, 1, 1, 1, 1, 1.0106163, -83.477681, 1.1, 0.9, 1.1, 0.9
    70,'',   138, 1, 1, 1, 1, 1.017073, -84.959464, 1.1, 0.9, 1.1, 0.9
    71,'',  13.8, 2, 1, 1, 1, 1.017761, -84.932396, 1.1, 0.9, 1.1, 0.9
    72,'',  13.8, 2, 1, 1, 1, 1.0181841, -84.91544, 1.1, 0.9, 1.1, 0.9
    73,'',  13.8, 2, 1, 1, 1, 1.0185693, -84.903609, 1.1, 0.9, 1.1, 0.9
    74,'',   138, 1, 1, 1, 1, 1.0266536, -88.863118, 1.1, 0.9, 1.1, 0.9
    75,'',   138, 1, 1, 1, 1, 1.0265934, -88.870364, 1.1, 0.9, 1.1, 0.9
    76,'',   138, 1, 1, 1, 1, 1.0046869, -69.284251, 1.1, 0.9, 1.1, 0.9
    77,'',   138, 1, 1, 1, 1, 1.0046252, -69.291224, 1.1, 0.9, 1.1, 0.9
    78,'',   138, 1, 1, 1, 1, 1.0252666, -80.204874, 1.1, 0.9, 1.1, 0.9
    79,'',   138, 1, 1, 1, 1, 1.0252634, -80.205251, 1.1, 0.9, 1.1, 0.9
    80,'',   345, 1, 1, 1, 1, 1.0384791, -84.6301, 1.1, 0.9, 1.1, 0.9
    81,'',   138, 1, 1, 1, 1, 1.0349377, -85.952929, 1.1, 0.9, 1.1, 0.9
    82,'',  13.8, 2, 1, 1, 1, 1.04, -82.943466, 1.1, 0.9, 1.1, 0.9
    83,'',   138, 1, 1, 1, 1, 1.0221335, -88.741301, 1.1, 0.9, 1.1, 0.9
    84,'',   138, 1, 1, 1, 1, 1.0216685, -88.797581, 1.1, 0.9, 1.1, 0.9
    85,'',   138, 1, 1, 1, 1, 1.0271203, -88.394859, 1.1, 0.9, 1.1, 0.9
    86,'',   138, 1, 1, 1, 1, 1.0269813, -88.411929, 1.1, 0.9, 1.1, 0.9
    87,'',   138, 1, 1, 1, 1, 1.0088388, -62.752591, 1.1, 0.9, 1.1, 0.9
    88,'',   138, 1, 1, 1, 1, 1.0087925, -62.758278, 1.1, 0.9, 1.1, 0.9
    89,'',   138, 1, 1, 1, 1, 1.0172964, -90.597935, 1.1, 0.9, 1.1, 0.9
    90,'',   138, 1, 1, 1, 1, 1.0172238, -90.607526, 1.1, 0.9, 1.1, 0.9
    91,'',   138, 1, 1, 1, 1, 1.0267202, -79.71487, 1.1, 0.9, 1.1, 0.9
    92,'',   138, 1, 1, 1, 1, 1.0261521, -79.786269, 1.1, 0.9, 1.1, 0.9
    93,'',   138, 1, 1, 1, 1, 1.0088461, -79.207994, 1.1, 0.9, 1.1, 0.9
    94,'',   138, 1, 1, 1, 1, 1.0087885, -79.215271, 1.1, 0.9, 1.1, 0.9
    95,'',   138, 1, 1, 1, 1, 1.0274664, -79.83705, 1.1, 0.9, 1.1, 0.9
    96,'',   138, 1, 1, 1, 1, 1.0271904, -79.870429, 1.1, 0.9, 1.1, 0.9
    97,'',   138, 1, 1, 1, 1, 1.0003674, -86.163253, 1.1, 0.9, 1.1, 0.9
    98,'',   138, 1, 1, 1, 1, 1.0000144, -86.210719, 1.1, 0.9, 1.1, 0.9
    99,'',   138, 1, 1, 1, 1, 1.0313288, -80.916855, 1.1, 0.9, 1.1, 0.9
   100,'',   138, 1, 1, 1, 1, 1.0312159, -80.930288, 1.1, 0.9, 1.1, 0.9
   101,'',   138, 1, 1, 1, 1, 1.0313215, -80.917652, 1.1, 0.9, 1.1, 0.9
   102,'',   138, 1, 1, 1, 1, 1.0173259, -86.29127, 1.1, 0.9, 1.1, 0.9
   103,'',   138, 1, 1, 1, 1, 1.0170246, -86.32948, 1.1, 0.9, 1.1, 0.9
   104,'',   138, 1, 1, 1, 1, 1.0243409, -88.713165, 1.1, 0.9, 1.1, 0.9
   105,'',   138, 1, 1, 1, 1, 1.0237109, -88.788303, 1.1, 0.9, 1.1, 0.9
   106,'',   138, 1, 1, 1, 1, 1.029118, -87.779379, 1.1, 0.9, 1.1, 0.9
   107,'',   138, 1, 1, 1, 1, 1.0290114, -87.792051, 1.1, 0.9, 1.1, 0.9
   108,'',   138, 1, 1, 1, 1, 1.0280316, -81.402299, 1.1, 0.9, 1.1, 0.9
   109,'',   138, 1, 1, 1, 1, 1.0276697, -81.441405, 1.1, 0.9, 1.1, 0.9
   110,'',   138, 1, 1, 1, 1, 1.0178549, -63.795333, 1.1, 0.9, 1.1, 0.9
   111,'',   138, 1, 1, 1, 1, 1.017358, -63.861081, 1.1, 0.9, 1.1, 0.9
   112,'',   138, 1, 1, 1, 1, 1.0211974, -88.644825, 1.1, 0.9, 1.1, 0.9
   113,'',   138, 1, 1, 1, 1, 1.0208784, -88.680531, 1.1, 0.9, 1.1, 0.9
   114,'',   138, 1, 1, 1, 1, 1.0281279, -88.089157, 1.1, 0.9, 1.1, 0.9
   115,'',   138, 1, 1, 1, 1, 1.0280948, -88.093399, 1.1, 0.9, 1.1, 0.9
   116,'',   138, 1, 1, 1, 1, 1.0281075, -88.091794, 1.1, 0.9, 1.1, 0.9
   117,'',   138, 1, 1, 1, 1, 1.0223339, -84.599935, 1.1, 0.9, 1.1, 0.9
   118,'',   138, 1, 1, 1, 1, 1.0222651, -84.608479, 1.1, 0.9, 1.1, 0.9
   119,'',   138, 1, 1, 1, 1, 1.0105203, -84.790238, 1.1, 0.9, 1.1, 0.9
   120,'',   138, 1, 1, 1, 1, 1.0102633, -84.821136, 1.1, 0.9, 1.1, 0.9
   121,'',   138, 1, 1, 1, 1, 1.0093595, -91.913818, 1.1, 0.9, 1.1, 0.9
   122,'',   138, 1, 1, 1, 1, 1.0086978, -92.001545, 1.1, 0.9, 1.1, 0.9
   123,'',   345, 1, 1, 1, 1, 1.0378782, -78.959324, 1.1, 0.9, 1.1, 0.9
   124,'',   138, 1, 1, 1, 1, 1.0363413, -79.185283, 1.1, 0.9, 1.1, 0.9
   125,'',  13.8, 2, 1, 1, 1, 1.04, -77.973334, 1.1, 0.9, 1.1, 0.9
   126,'',  13.8, 2, 1, 1, 1, 1.04, -78.428611, 1.1, 0.9, 1.1, 0.9
   127,'',  13.8, 2, 1, 1, 1, 1.04, -77.796671, 1.1, 0.9, 1.1, 0.9
   128,'',  13.8, 2, 1, 1, 1, 1.04, -78.575631, 1.1, 0.9, 1.1, 0.9
   129,'',   138, 1, 1, 1, 1, 1.0081239, -85.163308, 1.1, 0.9, 1.1, 0.9
   130,'',   138, 1, 1, 1, 1, 1.0071685, -85.268968, 1.1, 0.9, 1.1, 0.9
   131,'',   138, 1, 1, 1, 1, 1.0308272, -80.863301, 1.1, 0.9, 1.1, 0.9
   132,'',   138, 1, 1, 1, 1, 1.030613, -80.888271, 1.1, 0.9, 1.1, 0.9
   133,'',   138, 1, 1, 1, 1, 1.0278615, -79.740841, 1.1, 0.9, 1.1, 0.9
   134,'',   138, 1, 1, 1, 1, 1.0275378, -79.780546, 1.1, 0.9, 1.1, 0.9
   135,'',   138, 1, 1, 1, 1, 1.0144397, -91.015909, 1.1, 0.9, 1.1, 0.9
   136,'',   138, 1, 1, 1, 1, 1.0141217, -91.05727, 1.1, 0.9, 1.1, 0.9
   137,'',   138, 1, 1, 1, 1, 1.0221406, -85.694957, 1.1, 0.9, 1.1, 0.9
   138,'',   138, 1, 1, 1, 1, 1.0215615, -85.770297, 1.1, 0.9, 1.1, 0.9
   139,'',   138, 1, 1, 1, 1, 1.0290017, -81.436334, 1.1, 0.9, 1.1, 0.9
   140,'',   138, 1, 1, 1, 1, 1.0289998, -81.436557, 1.1, 0.9, 1.1, 0.9
   141,'',   138, 1, 1, 1, 1, 1.0070628, -66.617671, 1.1, 0.9, 1.1, 0.9
   142,'',   138, 1, 1, 1, 1, 1.0056097, -66.784486, 1.1, 0.9, 1.1, 0.9
   143,'',   138, 1, 1, 1, 1, 1.02421, -56.862268, 1.1, 0.9, 1.1, 0.9
   144,'',  13.8, 2, 1, 1, 1, 1.04, -51.538524, 1.1, 0.9, 1.1, 0.9
   145,'',  13.8, 2, 1, 1, 1, 1.04, -51.426332, 1.1, 0.9, 1.1, 0.9
   146,'',   345, 1, 1, 1, 1, 1.0278925, -85.441603, 1.1, 0.9, 1.1, 0.9
   147,'',   138, 1, 1, 1, 1, 1.0127878, -84.199108, 1.1, 0.9, 1.1, 0.9
   148,'',   138, 1, 1, 1, 1, 1.0120505, -84.294866, 1.1, 0.9, 1.1, 0.9
   149,'',   138, 1, 1, 1, 1, 1.032722, -86.310273, 1.1, 0.9, 1.1, 0.9
   150,'',   138, 1, 1, 1, 1, 1.0327104, -86.311631, 1.1, 0.9, 1.1, 0.9
   151,'',   345, 1, 1, 1, 1, 1.0357183, -80.27592, 1.1, 0.9, 1.1, 0.9
   152,'',   138, 1, 1, 1, 1, 1.0346107, -81.578286, 1.1, 0.9, 1.1, 0.9
   153,'',   138, 1, 1, 1, 1, 1.0339549, -81.657552, 1.1, 0.9, 1.1, 0.9
   154,'',   138, 1, 1, 1, 1, 1.0264346, -81.905386, 1.1, 0.9, 1.1, 0.9
   155,'',   138, 1, 1, 1, 1, 1.0259694, -81.961061, 1.1, 0.9, 1.1, 0.9
   156,'',   138, 1, 1, 1, 1, 1.0151041, -83.982394, 1.1, 0.9, 1.1, 0.9
   157,'',   138, 1, 1, 1, 1, 1.0141375, -84.102331, 1.1, 0.9, 1.1, 0.9
   158,'',   138, 1, 1, 1, 1, 1.0101143, -91.308854, 1.1, 0.9, 1.1, 0.9
   159,'',   138, 1, 1, 1, 1, 1.0098221, -91.346496, 1.1, 0.9, 1.1, 0.9
   160,'',   138, 1, 1, 1, 1, 1.0302381, -87.383375, 1.1, 0.9, 1.1, 0.9
   161,'',   138, 1, 1, 1, 1, 1.030056, -87.406341, 1.1, 0.9, 1.1, 0.9
   162,'',   345, 1, 1, 1, 1, 1.0279867, -85.505924, 1.1, 0.9, 1.1, 0.9
   163,'',   138, 1, 1, 1, 1, 1.0251395, -86.37575, 1.1, 0.9, 1.1, 0.9
   164,'',   138, 1, 1, 1, 1, 1.0238381, -86.537163, 1.1, 0.9, 1.1, 0.9
   165,'',   345, 1, 1, 1, 1, 1.0377164, -78.855841, 1.1, 0.9, 1.1, 0.9
   166,'',   138, 1, 1, 1, 1, 1.0346616, -79.582931, 1.1, 0.9, 1.1, 0.9
   167,'',  13.8, 2, 1, 1, 1, 1.04, -78.232647, 1.1, 0.9, 1.1, 0.9
   168,'',  13.8, 2, 1, 1, 1, 1.04, -77.827377, 1.1, 0.9, 1.1, 0.9
   169,'',  13.8, 2, 1, 1, 1, 1.04, -77.373419, 1.1, 0.9, 1.1, 0.9
   170,'',   138, 1, 1, 1, 1, 1.0273456, -79.903854, 1.1, 0.9, 1.1, 0.9
   171,'',   138, 1, 1, 1, 1, 1.027239, -79.918095, 1.1, 0.9, 1.1, 0.9
   172,'',   138, 1, 1, 1, 1, 1.0221393, -83.670555, 1.1, 0.9, 1.1, 0.9
   173,'',   138, 1, 1, 1, 1, 1.022117, -83.672989, 1.1, 0.9, 1.1, 0.9
   174,'',   138, 1, 1, 1, 1, 1.0220914, -83.676089, 1.1, 0.9, 1.1, 0.9
   175,'',   345, 1, 1, 1, 1, 1.0311758, -78.78082, 1.1, 0.9, 1.1, 0.9
   176,'',   138, 1, 1, 1, 1, 1.0121572, -74.968675, 1.1, 0.9, 1.1, 0.9
   177,'',   138, 1, 1, 1, 1, 1.0120822, -74.978392, 1.1, 0.9, 1.1, 0.9
   178,'',   138, 1, 1, 1, 1, 1.0120992, -74.975077, 1.1, 0.9, 1.1, 0.9
   179,'',   138, 1, 1, 1, 1, 1.0044638, -92.488859, 1.1, 0.9, 1.1, 0.9
   180,'',   138, 1, 1, 1, 1, 1.0042886, -92.508626, 1.1, 0.9, 1.1, 0.9
   181,'',   138, 1, 1, 1, 1, 0.99920814, -85.936885, 1.1, 0.9, 1.1, 0.9
   182,'',   138, 1, 1, 1, 1, 0.99842467, -86.034955, 1.1, 0.9, 1.1, 0.9
   183,'',   138, 1, 1, 1, 1, 1.0131179, -64.529582, 1.1, 0.9, 1.1, 0.9
   184,'',   138, 1, 1, 1, 1, 1.0128915, -64.556851, 1.1, 0.9, 1.1, 0.9
   185,'',   138, 1, 1, 1, 1, 1.0206576, -80.598101, 1.1, 0.9, 1.1, 0.9
   186,'',   138, 1, 1, 1, 1, 1.0203001, -80.640495, 1.1, 0.9, 1.1, 0.9
   187,'',   138, 1, 1, 1, 1, 1.0164517, -90.732124, 1.1, 0.9, 1.1, 0.9
   188,'',   138, 1, 1, 1, 1, 1.0163221, -90.746482, 1.1, 0.9, 1.1, 0.9
   189,'',   138, 1, 1, 1, 1, 1.0262685, -88.839968, 1.1, 0.9, 1.1, 0.9
   190,'',   138, 1, 1, 1, 1, 1.0261704, -88.850338, 1.1, 0.9, 1.1, 0.9
   191,'',   138, 1, 1, 1, 1, 1.0286685, -87.829731, 1.1, 0.9, 1.1, 0.9
   192,'',   138, 1, 1, 1, 1, 1.0285392, -87.845011, 1.1, 0.9, 1.1, 0.9
   193,'',   138, 1, 1, 1, 1, 1.022691, -88.590006, 1.1, 0.9, 1.1, 0.9
   194,'',   138, 1, 1, 1, 1, 1.022461, -88.617261, 1.1, 0.9, 1.1, 0.9
   195,'',   345, 1, 1, 1, 1, 1.0285319, -85.470957, 1.1, 0.9, 1.1, 0.9
   196,'',   138, 1, 1, 1, 1, 1.0221965, -86.996334, 1.1, 0.9, 1.1, 0.9
   197,'',  13.8, 2, 1, 1, 1, 1.04, -80.601319, 1.1, 0.9, 1.1, 0.9
   198,'',  13.8, 2, 1, 1, 1, 1.04, -83.055497, 1.1, 0.9, 1.1, 0.9
   199,'',   138, 1, 1, 1, 1, 1.0211408, -87.11348, 1.1, 0.9, 1.1, 0.9
   200,'',   138, 1, 1, 1, 1, 1.0212944, -87.749722, 1.1, 0.9, 1.1, 0.9
...
0 / END OF BUS DATA, BEGIN LOAD DATA
2, '1', 1, 1, 1, 33.807, 9.015, 0, 0, 0, 0, 1, 1, 0
4, '1', 1, 1, 1, 104.804, 27.948, 0, 0, 0, 0, 1, 1, 0
6, '1', 1, 1, 1, 1.816, 0.484, 0, 0, 0, 0, 1, 1, 0
11, '1', 1, 1, 1, 1.185, 0.316, 0, 0, 0, 0, 1, 1, 0
13, '1', 1, 1, 1, 22.207, 5.922, 0, 0, 0, 0, 1, 1, 0
20, '1', 1, 1, 1, 2.177, 0.581, 0, 0, 0, 0, 1, 1, 0
22, '1', 1, 1, 1, 117.451, 31.32, 0, 0, 0, 0, 1, 1, 0
25, '1', 1, 1, 1, 1.221, 0.326, 0, 0, 0, 0, 1, 1, 0
26, '1', 1, 1, 1, 11.583, 3.089, 0, 0, 0, 0, 1, 1, 0
28, '1', 1, 1, 1, 33.65, 8.973, 0, 0, 0, 0, 1, 1, 0
30, '1', 1, 1, 1, 78.964, 21.057, 0, 0, 0, 0, 1, 1, 0
32, '1', 1, 1, 1, 4.68, 1.248, 0, 0, 0, 0, 1, 1, 0
34, '1', 1, 1, 1, 11.982, 3.195, 0, 0, 0, 0, 1, 1, 0
36, '1', 1, 1, 1, 20.777, 5.541, 0, 0, 0, 0, 1, 1, 0
38, '1', 1, 1, 1, 0.073, 0.019, 0, 0, 0, 0, 1, 1, 0
41, '1', 1, 1, 1, 31.007, 8.269, 0, 0, 0, 0, 1, 1, 0
43, '1', 1, 1, 1, 2.138, 0.57, 0, 0, 0, 0, 1, 1, 0
45, '1', 1, 1, 1, 1.604, 0.428, 0, 0, 0, 0, 1, 1, 0
47, '1', 1, 1, 1, 23.212, 6.19, 0, 0, 0, 0, 1, 1, 0
51, '1', 1, 1, 1, 0.17, 0.045, 0, 0, 0, 0, 1, 1, 0
52, '1', 1, 1, 1, 11.21, 2.989, 0, 0, 0, 0, 1, 1, 0
54, '1', 1, 1, 1, 27.494, 7.332, 0, 0, 0, 0, 1, 1, 0
56, '1', 1, 1, 1, 1.08, 0.288, 0, 0, 0, 0, 1, 1, 0
59, '1', 1, 1, 1, 84.224, 22.46, 0, 0, 0, 0, 1, 1, 0
61, '1', 1, 1, 1, 0.109, 0.029, 0, 0, 0, 0, 1, 1, 0
64, '1', 1, 1, 1, 27.468, 7.325, 0, 0, 0, 0, 1, 1, 0
67, '1', 1, 1, 1, 2.19, 0.584, 0, 0, 0, 0, 1, 1, 0
69, '1', 1, 1, 1, 9.07, 2.419, 0, 0, 0, 0, 1, 1, 0
75, '1', 1, 1, 1, 4.187, 1.117, 0, 0, 0, 0, 1, 1, 0
77, '1', 1, 1, 1, 3.928, 1.048, 0, 0, 0, 0, 1, 1, 0
79, '1', 1, 1, 1, 0.222, 0.059, 0, 0, 0, 0, 1, 1, 0
84, '1', 1, 1, 1, 29.432, 7.848, 0, 0, 0, 0, 1, 1, 0
86, '1', 1, 1, 1, 8.432, 2.248, 0, 0, 0, 0, 1, 1, 0
88, '1', 1, 1, 1, 2.969, 0.792, 0, 0, 0, 0, 1, 1, 0
90, '1', 1, 1, 1, 4.661, 1.243, 0, 0, 0, 0, 1, 1, 0
92, '1', 1, 1, 1, 37.893, 10.105, 0, 0, 0, 0, 1, 1, 0
94, '1', 1, 1, 1, 4.118, 1.098, 0, 0, 0, 0, 1, 1, 0
96, '1', 1, 1, 1, 19.812, 5.283, 0, 0, 0, 0, 1, 1, 0
98, '1', 1, 1, 1, 21.614, 5.764, 0, 0, 0, 0, 1, 1, 0
100, '1', 1, 1, 1, 7.23, 1.928, 0, 0, 0, 0, 1, 1, 0
101, '1', 1, 1, 1, 0.476, 0.127, 0, 0, 0, 0, 1, 1, 0
103, '1', 1, 1, 1, 18.597, 4.959, 0, 0, 0, 0, 1, 1, 0
105, '1', 1, 1, 1, 38.503, 10.267, 0, 0, 0, 0, 1, 1, 0
107, '1', 1, 1, 1, 7.671, 2.046, 0, 0, 0, 0, 1, 1, 0
109, '1', 1, 1, 1, 25.443, 6.785, 0, 0, 0, 0, 1, 1, 0
111, '1', 1, 1, 1, 33.306, 8.882, 0, 0, 0, 0, 1, 1, 0
113, '1', 1, 1, 1, 22.042, 5.878, 0, 0, 0, 0, 1, 1, 0
115, '1', 1, 1, 1, 2.426, 0.647, 0, 0, 0, 0, 1, 1, 0
116, '1', 1, 1, 1, 1.485, 0.396, 0, 0, 0, 0, 1, 1, 0
118, '1', 1, 1, 1, 4.233, 1.129, 0, 0, 0, 0, 1, 1, 0
120, '1', 1, 1, 1, 18.914, 5.044, 0, 0, 0, 0, 1, 1, 0
122, '1', 1, 1, 1, 42.15, 11.24, 0, 0, 0, 0, 1, 1, 0
130, '1', 1, 1, 1, 61.697, 16.453, 0, 0, 0, 0, 1, 1, 0
132, '1', 1, 1, 1, 13.476, 3.594, 0, 0, 0, 0, 1, 1, 0
134, '1', 1, 1, 1, 24.85, 6.627, 0, 0, 0, 0, 1, 1, 0
136, '1', 1, 1, 1, 21.134, 5.636, 0, 0, 0, 0, 1, 1, 0
138, '1', 1, 1, 1, 37.722, 10.059, 0, 0, 0, 0, 1, 1, 0
140, '1', 1, 1, 1, 0.136, 0.036, 0, 0, 0, 0, 1, 1, 0
142, '1', 1, 1, 1, 91.183, 24.315, 0, 0, 0, 0, 1, 1, 0
148, '1', 1, 1, 1, 45.354, 12.094, 0, 0, 0, 0, 1, 1, 0
150, '1', 1, 1, 1, 0.72, 0.192, 0, 0, 0, 0, 1, 1, 0
153, '1', 1, 1, 1, 49.809, 13.282, 0, 0, 0, 0, 1, 1, 0
155, '1', 1, 1, 1, 35.741, 9.531, 0, 0, 0, 0, 1, 1, 0
157, '1', 1, 1, 1, 63.018, 16.805, 0, 0, 0, 0, 1, 1, 0
159, '1', 1, 1, 1, 18.049, 4.813, 0, 0, 0, 0, 1, 1, 0
161, '1', 1, 1, 1, 12.439, 3.317, 0, 0, 0, 0, 1, 1, 0
164, '1', 1, 1, 1, 77.525, 20.673, 0, 0, 0, 0, 1, 1, 0
171, '1', 1, 1, 1, 7.211, 1.923, 0, 0, 0, 0, 1, 1, 0
173, '1', 1, 1, 1, 1.503, 0.401, 0, 0, 0, 0, 1, 1, 0
174, '1', 1, 1, 1, 3.501, 0.934, 0, 0, 0, 0, 1, 1, 0
177, '1', 1, 1, 1, 4.963, 1.323, 0, 0, 0, 0, 1, 1, 0
178, '1', 1, 1, 1, 3.85, 1.027, 0, 0, 0, 0, 1, 1, 0
180, '1', 1, 1, 1, 11.165, 2.977, 0, 0, 0, 0, 1, 1, 0
182, '1', 1, 1, 1, 48.141, 12.838, 0, 0, 0, 0, 1, 1, 0
184, '1', 1, 1, 1, 17.054, 4.548, 0, 0, 0, 0, 1, 1, 0
186, '1', 1, 1, 1, 26.425, 7.047, 0, 0, 0, 0, 1, 1, 0
188, '1', 1, 1, 1, 8.727, 2.327, 0, 0, 0, 0, 1, 1, 0
190, '1', 1, 1, 1, 6.744, 1.798, 0, 0, 0, 0, 1, 1, 0
192, '1', 1, 1, 1, 7.879, 2.101, 0, 0, 0, 0, 1, 1, 0
194, '1', 1, 1, 1, 13.753, 3.667, 0, 0, 0, 0, 1, 1, 0
199, '1', 1, 1, 1, 68.239, 18.197, 0, 0, 0, 0, 1, 1, 0
201, '1', 1, 1, 1, 7.021, 1.872, 0, 0, 0, 0, 1, 1, 0
203, '1', 1, 1, 1, 2.247, 0.599, 0, 0, 0, 0, 1, 1, 0
204, '1', 1, 1, 1, 21.887, 5.837, 0, 0, 0, 0, 1, 1, 0
206, '1', 1, 1, 1, 1.442, 0.385, 0, 0, 0, 0, 1, 1, 0
207, '1', 1, 1, 1, 10.818, 2.885, 0, 0, 0, 0, 1, 1, 0
209, '1', 1, 1, 1, 48.916, 13.044, 0, 0, 0, 0, 1, 1, 0
211, '1', 1, 1, 1, 18.329, 4.888, 0, 0, 0, 0, 1, 1, 0
213, '1', 1, 1, 1, 46.722, 12.459, 0, 0, 0, 0, 1, 1, 0
215, '1', 1, 1, 1, 40.489, 10.797, 0, 0, 0, 0, 1, 1, 0
217, '1', 1, 1, 1, 32.928, 8.781, 0, 0, 0, 0, 1, 1, 0
219, '1', 1, 1, 1, 0.16, 0.043, 0, 0, 0, 0, 1, 1, 0
227, '1', 1, 1, 1, 3.161, 0.843, 0, 0, 0, 0, 1, 1, 0
229, '1', 1, 1, 1, 31.519, 8.405, 0, 0, 0, 0, 1, 1, 0
234, '1', 1, 1, 1, 47.363, 12.63, 0, 0, 0, 0, 1, 1, 0
237, '1', 1, 1, 1, 1.3, 0.347, 0, 0, 0, 0, 1, 1, 0
239, '1', 1, 1, 1, 20.924, 5.58, 0, 0, 0, 0, 1, 1, 0
241, '1', 1, 1, 1, 9.461, 2.523, 0, 0, 0, 0, 1, 1, 0
243, '1', 1, 1, 1, 58.818, 15.685, 0, 0, 0, 0, 1, 1, 0
245, '1', 1, 1, 1, 5.672, 1.513, 0, 0, 0, 0, 1, 1, 0
252, '1', 1, 1, 1, 70.925, 18.913, 0, 0, 0, 0, 1, 1, 0
259, '1', 1, 1, 1, 4.876, 1.3, 0, 0, 0, 0, 1, 1, 0
261, '1', 1, 1, 1, 10.888, 2.903, 0, 0, 0, 0, 1, 1, 0
266, '1', 1, 1, 1, 48.799, 13.013, 0, 0, 0, 0, 1, 1, 0
268, '1', 1, 1, 1, 56.147, 14.972, 0, 0, 0, 0, 1, 1, 0
270, '1', 1, 1, 1, 3.26, 0.869, 0, 0, 0, 0, 1, 1, 0
273, '1', 1, 1, 1, 4.549, 1.213, 0, 0, 0, 0, 1, 1, 0
277, '1', 1, 1, 1, 0.32, 0.085, 0, 0, 0, 0, 1, 1, 0
278, '1', 1, 1, 1, 4.557, 1.215, 0, 0, 0, 0, 1, 1, 0
280, '1', 1, 1, 1, 10.126, 2.7, 0, 0, 0, 0, 1, 1, 0
282, '1', 1, 1, 1, 68.355, 18.228, 0, 0, 0, 0, 1, 1, 0
284, '1', 1, 1, 1, 15.648, 4.173, 0, 0, 0, 0, 1, 1, 0
286, '1', 1, 1, 1, 4.818, 1.285, 0, 0, 0, 0, 1, 1, 0
288, '1', 1, 1, 1, 45.896, 12.239, 0, 0, 0, 0, 1, 1, 0
290, '1', 1, 1, 1, 2.15, 0.573, 0, 0, 0, 0, 1, 1, 0
292, '1', 1, 1, 1, 6.016, 1.604, 0, 0, 0, 0, 1, 1, 0
294, '1', 1, 1, 1, 12.272, 3.273, 0, 0, 0, 0, 1, 1, 0
296, '1', 1, 1, 1, 4.164, 1.11, 0, 0, 0, 0, 1, 1, 0
299, '1', 1, 1, 1, 6.982, 1.862, 0, 0, 0, 0, 1, 1, 0
303, '1', 1, 1, 1, 49.03, 13.075, 0, 0, 0, 0, 1, 1, 0
307, '1', 1, 1, 1, 45.444, 12.118, 0, 0, 0, 0, 1, 1, 0
309, '1', 1, 1, 1, 4.328, 1.154, 0, 0, 0, 0, 1, 1, 0
311, '1', 1, 1, 1, 25.541, 6.811, 0, 0, 0, 0, 1, 1, 0
313, '1', 1, 1, 1, 5.961, 1.59, 0, 0, 0, 0, 1, 1, 0
315, '1', 1, 1, 1, 0.228, 0.061, 0, 0, 0, 0, 1, 1, 0
317, '1', 1, 1, 1, 2.121, 0.566, 0, 0, 0, 0, 1, 1, 0
321, '1', 1, 1, 1, 118.812, 31.683, 0, 0, 0, 0, 1, 1, 0
323, '1', 1, 1, 1, 27.053, 7.214, 0, 0, 0, 0, 1, 1, 0
325, '1', 1, 1, 1, 61.828, 16.488, 0, 0, 0, 0, 1, 1, 0
327, '1', 1, 1, 1, 95.627, 25.501, 0, 0, 0, 0, 1, 1, 0
329, '1', 1, 1, 1, 15.162, 4.043, 0, 0, 0, 0, 1, 1, 0
331, '1', 1, 1, 1, 30.571, 8.152, 0, 0, 0, 0, 1, 1, 0
334, '1', 1, 1, 1, 0.268, 0.071, 0, 0, 0, 0, 1, 1, 0
335, '1', 1, 1, 1, 0.446, 0.119, 0, 0, 0, 0, 1, 1, 0
337, '1', 1, 1, 1, 3.206, 0.855, 0, 0, 0, 0, 1, 1, 0
339, '1', 1, 1, 1, 42.445, 11.319, 0, 0, 0, 0, 1, 1, 0
341, '1', 1, 1, 1, 14.475, 3.86, 0, 0, 0, 0, 1, 1, 0
343, '1', 1, 1, 1, 1.203, 0.321, 0, 0, 0, 0, 1, 1, 0
344, '1', 1, 1, 1, 1.165, 0.311, 0, 0, 0, 0, 1, 1, 0
346, '1', 1, 1, 1, 37.584, 10.022, 0, 0, 0, 0, 1, 1, 0
348, '1', 1, 1, 1, 51.631, 13.768, 0, 0, 0, 0, 1, 1, 0
355, '1', 1, 1, 1, 15.77, 4.205, 0, 0, 0, 0, 1, 1, 0
357, '1', 1, 1, 1, 33.307, 8.882, 0, 0, 0, 0, 1, 1, 0
359, '1', 1, 1, 1, 6.991, 1.864, 0, 0, 0, 0, 1, 1, 0
364, '1', 1, 1, 1, 16.275, 4.34, 0, 0, 0, 0, 1, 1, 0
366, '1', 1, 1, 1, 44.619, 11.898, 0, 0, 0, 0, 1, 1, 0
368, '1', 1, 1, 1, 6.674, 1.78, 0, 0, 0, 0, 1, 1, 0
370, '1', 1, 1, 1, 20.747, 5.533, 0, 0, 0, 0, 1, 1, 0
373, '1', 1, 1, 1, 22.776, 6.074, 0, 0, 0, 0, 1, 1, 0
375, '1', 1, 1, 1, 19.561, 5.216, 0, 0, 0, 0, 1, 1, 0
377, '1', 1, 1, 1, 48.331, 12.888, 0, 0, 0, 0, 1, 1, 0
379, '1', 1, 1, 1, 7.353, 1.961, 0, 0, 0, 0, 1, 1, 0
381, '1', 1, 1, 1, 5.417, 1.445, 0, 0, 0, 0, 1, 1, 0
383, '1', 1, 1, 1, 16.012, 4.27, 0, 0, 0, 0, 1, 1, 0
385, '1', 1, 1, 1, 21.885, 5.836, 0, 0, 0, 0, 1, 1, 0
397, '1', 1, 1, 1, 23.282, 6.209, 0, 0, 0, 0, 1, 1, 0
398, '1', 1, 1, 1, 9.77, 2.605, 0, 0, 0, 0, 1, 1, 0
400, '1', 1, 1, 1, 11.036, 2.943, 0, 0, 0, 0, 1, 1, 0
402, '1', 1, 1, 1, 49.929, 13.314, 0, 0, 0, 0, 1, 1, 0
404, '1', 1, 1, 1, 9.475, 2.527, 0, 0, 0, 0, 1, 1, 0
406, '1', 1, 1, 1, 2.967, 0.791, 0, 0, 0, 0, 1, 1, 0
416, '1', 1, 1, 1, 4.789, 1.277, 0, 0, 0, 0, 1, 1, 0
418, '1', 1, 1, 1, 38.016, 10.138, 0, 0, 0, 0, 1, 1, 0
420, '1', 1, 1, 1, 2.505, 0.668, 0, 0, 0, 0, 1, 1, 0
422, '1', 1, 1, 1, 38.845, 10.359, 0, 0, 0, 0, 1, 1, 0
424, '1', 1, 1, 1, 88.782, 23.675, 0, 0, 0, 0, 1, 1, 0
427, '1', 1, 1, 1, 6.918, 1.845, 0, 0, 0, 0, 1, 1, 0
446, '1', 1, 1, 1, 52.997, 14.132, 0, 0, 0, 0, 1, 1, 0
448, '1', 1, 1, 1, 30.776, 8.207, 0, 0, 0, 0, 1, 1, 0
450, '1', 1, 1, 1, 0.6, 0.16, 0, 0, 0, 0, 1, 1, 0
451, '1', 1, 1, 1, 1.182, 0.315, 0, 0, 0, 0, 1, 1, 0
452, '1', 1, 1, 1, 6.309, 1.682, 0, 0, 0, 0, 1, 1, 0
459, '1', 1, 1, 1, 42.086, 11.223, 0, 0, 0, 0, 1, 1, 0
460, '1', 1, 1, 1, 14.086, 3.756, 0, 0, 0, 0, 1, 1, 0
461, '1', 1, 1, 1, 54.813, 14.617, 0, 0, 0, 0, 1, 1, 0
465, '1', 1, 1, 1, 6.696, 1.785, 0, 0, 0, 0, 1, 1, 0
466, '1', 1, 1, 1, 23.173, 6.179, 0, 0, 0, 0, 1, 1, 0
467, '1', 1, 1, 1, 0.47, 0.125, 0, 0, 0, 0, 1, 1, 0
468, '1', 1, 1, 1, 2.192, 0.585, 0, 0, 0, 0, 1, 1, 0
469, '1', 1, 1, 1, 76.811, 20.483, 0, 0, 0, 0, 1, 1, 0
470, '1', 1, 1, 1, 24.799, 6.613, 0, 0, 0, 0, 1, 1, 0
472, '1', 1, 1, 1, 26.582, 7.088, 0, 0, 0, 0, 1, 1, 0
473, '1', 1, 1, 1, 0.582, 0.155, 0, 0, 0, 0, 1, 1, 0
474, '1', 1, 1, 1, 99.932, 26.649, 0, 0, 0, 0, 1, 1, 0
475, '1', 1, 1, 1, 0.128, 0.034, 0, 0, 0, 0, 1, 1, 0
476, '1', 1, 1, 1, 47.278, 12.607, 0, 0, 0, 0, 1, 1, 0
477, '1', 1, 1, 1, 16.752, 4.467, 0, 0, 0, 0, 1, 1, 0
478, '1', 1, 1, 1, 5.175, 1.38, 0, 0, 0, 0, 1, 1, 0
485, '1', 1, 1, 1, 22.02, 5.872, 0, 0, 0, 0, 1, 1, 0
486, '1', 1, 1, 1, 54.133, 14.435, 0, 0, 0, 0, 1, 1, 0
487, '1', 1, 1, 1, 6.799, 1.813, 0, 0, 0, 0, 1, 1, 0
488, '1', 1, 1, 1, 58.503, 15.601, 0, 0, 0, 0, 1, 1, 0
489, '1', 1, 1, 1, 1.764, 0.47, 0, 0, 0, 0, 1, 1, 0
490, '1', 1, 1, 1, 17.371, 4.632, 0, 0, 0, 0, 1, 1, 0
491, '1', 1, 1, 1, 94.411, 25.176, 0, 0, 0, 0, 1, 1, 0
492, '1', 1, 1, 1, 33.649, 8.973, 0, 0, 0, 0, 1, 1, 0
493, '1', 1, 1, 1, 2.287, 0.61, 0, 0, 0, 0, 1, 1, 0
495, '1', 1, 1, 1, 40.196, 10.719, 0, 0, 0, 0, 1, 1, 0
499, '1', 1, 1, 1, 96.619, 25.765, 0, 0, 0, 0, 1, 1, 0
500, '1', 1, 1, 1, 11.23, 2.995, 0, 0, 0, 0, 1, 1, 0
0 / END OF LOAD DATA, BEGIN FIXED SHUNT DATA
0 / END OF FIXED SHUNT DATA, BEGIN GENERATOR DATA
9, '1', 422.1823, -94.16, 359.66, -94.16, 1.04, 0, 0, 0, 1.0, 0, 0, 1, 1, 1, 771.8, 231.54, 1, 1, 0, 1, 0, 1, 0, 1, 0, 1
16, '1', 0, 0, 163.56, -36.44, 1.0364545, 0, 0, 0, 1.0, 0, 0, 1, 0, 1, 444.45, 133.33, 1, 1, 0, 1, 0, 1, 0, 1, 0, 1
17, '1', 888.9, -72.89, 327.12, -72.89, 1.04, 0, 0, 0, 1.0, 0, 0, 1, 1, 1, 888.9, 266.67, 1, 1, 0, 1, 0, 1, 0, 1, 0, 1
18, '1', 157.6, -12.92, 58, -12.92, 1.04, 0, 0, 0, 1.0, 0, 0, 1, 1, 1, 157.6, 47.28, 1, 1, 0, 1, 0, 1, 0, 1, 0, 1
49, '1', 1.3, -0.16, 0.61, -0.16, 1.0098675, 0, 0, 0, 1.0, 0, 0, 1, 1, 1, 1.3, 0.39, 1, 1, 0, 1, 0, 1, 0, 1, 0, 1
50, '1', 2.6, -0.32, 1.21, -0.32, 1.0101546, 0, 0, 0, 1.0, 0, 0, 1, 1, 1, 2.6, 0.78, 1, 1, 0, 1, 0, 1, 0, 1, 0, 1
63, '1', 1.0038015, -0.36, 1.63, -0.36, 1.0152549, 0, 0, 0, 1.0, 0, 0, 1, 1, 1, 3.2, 0.96, 1, 1, 0, 1, 0, 1, 0, 1, 0, 1
71, '1', 1.129, -0.2, 1.54, -0.2, 1.0178462, 0, 0, 0, 1.0, 0, 0, 1, 1, 1, 1.129, 0, 1, 1, 0, 1, 0, 1, 0, 1, 0, 1
72, '1', 0.565, -0.1, 0.77, -0.1, 1.0182692, 0, 0, 0, 1.0, 0, 0, 1, 1, 1, 0.565, 0, 1, 1, 0, 1, 0, 1, 0, 1, 0, 1
73, '1', 0.395, -0.07, 0.54, -0.07, 1.0186544, 0, 0, 0, 1.0, 0, 0, 1, 1, 1, 0.395, 0, 1, 1, 0, 1, 0, 1, 0, 1, 0, 1
82, '1', 102.186, -17.73, 138.97, -17.73, 1.04, 0, 0, 0, 1.0, 0, 0, 1, 1, 1, 102.186, 0, 1, 1, 0, 1, 0, 1, 0, 1, 0, 1
125, '1', 45.742, -7.94, 62.21, -7.94, 1.04, 0, 0, 0, 1.0, 0, 0, 1, 1, 1, 45.742, 0, 1, 1, 0, 1, 0, 1, 0, 1, 0, 1
126, '1', 45.742, -7.94, 62.21, -7.94, 1.04, 0, 0, 0, 1.0, 0, 0, 1, 1, 1, 45.742, 0, 1, 1, 0, 1, 0, 1, 0, 1, 0, 1
127, '1', 45.742, -7.94, 62.21, -7.94, 1.04, 0, 0, 0, 1.0, 0, 0, 1, 1, 1, 45.742, 0, 1, 1, 0, 1, 0, 1, 0, 1, 0, 1
128, '1', 45.742, -7.94, 62.21, -7.94, 1.04, 0, 0, 0, 1.0, 0, 0, 1, 1, 1, 45.742, 0, 1, 1, 0, 1, 0, 1, 0, 1, 0, 1
144, '1', 602.55, -49.41, 221.74, -49.41, 1.04, 0, 0, 0, 1.0, 0, 0, 1, 1, 1, 602.55, 180.76, 1, 1, 0, 1, 0, 1, 0, 1, 0, 1
145, '1', 602.55, -49.41, 221.74, -49.41, 1.04, 0, 0, 0, 1.0, 0, 0, 1, 1, 1, 602.55, 180.76, 1, 1, 0, 1, 0, 1, 0, 1, 0, 1
167, '1', 54.637, -9.48, 74.3, -9.48, 1.04, 0, 0, 0, 1.0, 0, 0, 1, 1, 1, 54.637, 0, 1, 1, 0, 1, 0, 1, 0, 1, 0, 1
168, '1', 54.637, -9.48, 74.3, -9.48, 1.04, 0, 0, 0, 1.0, 0, 0, 1, 1, 1, 54.637, 0, 1, 1, 0, 1, 0, 1, 0, 1, 0, 1
169, '1', 109.273, -18.96, 148.61, -18.96, 1.04, 0, 0, 0, 1.0, 0, 0, 1, 1, 1, 109.273, 0, 1, 1, 0, 1, 0, 1, 0, 1, 0, 1
197, '1', 293.6, -35.82, 136.82, -35.82, 1.04, 0, 0, 0, 1.0, 0, 0, 1, 1, 1, 293.6, 88.08, 1, 1, 0, 1, 0, 1, 0, 1, 0, 1
198, '1', 207.3, -25.29, 96.6, -25.29, 1.04, 0, 0, 0, 1.0, 0, 0, 1, 1, 1, 207.3, 62.19, 1, 1, 0, 1, 0, 1, 0, 1, 0, 1
222, '1', 1.468, -0.25, 2, -0.25, 1.0389176, 0, 0, 0, 1.0, 0, 0, 1, 1, 1, 1.468, 0, 1, 1, 0, 1, 0, 1, 0, 1, 0, 1
223, '1', 5.082, -0.88, 6.91, -0.88, 1.04, 0, 0, 0, 1.0, 0, 0, 1, 1, 1, 5.082, 0, 1, 1, 0, 1, 0, 1, 0, 1, 0, 1
224, '1', 144.343, -25.05, 196.3, -25.05, 1.04, 0, 0, 0, 1.0, 0, 0, 1, 1, 1, 144.343, 0, 1, 1, 0, 1, 0, 1, 0, 1, 0, 1
225, '1', 145.359, -25.23, 197.68, -25.23, 1.04, 0, 0, 0, 1.0, 0, 0, 1, 1, 1, 145.359, 0, 1, 1, 0, 1, 0, 1, 0, 1, 0, 1
231, '1', 2.9, -0.35, 1.35, -0.35, 1.0159706, 0, 0, 0, 1.0, 0, 0, 1, 1, 1, 2.9, 0.87, 1, 1, 0, 1, 0, 1, 0, 1, 0, 1
248, '1', 0, -1.627, 67.8, -14.79, 1.0365099, 0, 0, 0, 1.0, 0, 0, 1, 0, 1, 133.2, 39.96, 1, 1, 0, 1, 0, 1, 0, 1, 0, 1
249, '1', 0, 0, 67.8, -14.79, 1.0365099, 0, 0, 0, 1.0, 0, 0, 1, 0, 1, 133.2, 39.96, 1, 1, 0, 1, 0, 1, 0, 1, 0, 1
250, '1', 0, 0, 271.2, -59.14, 1.0365099, 0, 0, 0, 1.0, 0, 0, 1, 0, 1, 532.8, 159.84, 1, 1, 0, 1, 0, 1, 0, 1, 0, 1
254, '1', 4.1, -0.5, 1.91, -0.5, 1.0158278, 0, 0, 0, 1.0, 0, 0, 1, 1, 1, 4.1, 1.23, 1, 1, 0, 1, 0, 1, 0, 1, 0, 1
255, '1', 3.3, -0.4, 1.54, -0.4, 1.0148334, 0, 0, 0, 1.0, 0, 0, 1, 1, 1, 3.3, 0.99, 1, 1, 0, 1, 0, 1, 0, 1, 0, 1
256, '1', 2.9, -0.35, 1.35, -0.35, 1.0158242, 0, 0, 0, 1.0, 0, 0, 1, 1, 1, 2.9, 0.87, 1, 1, 0, 1, 0, 1, 0, 1, 0, 1
257, '1', 5.4, -0.66, 2.52, -0.66, 1.0152785, 0, 0, 0, 1.0, 0, 0, 1, 1, 1, 5.4, 1.62, 1, 1, 0, 1, 0, 1, 0, 1, 0, 1
258, '1', 1.1, -0.13, 0.51, -0.13, 1.0145431, 0, 0, 0, 1.0, 0, 0, 1, 1, 1, 1.1, 0.33, 1, 1, 0, 1, 0, 1, 0, 1, 0, 1
264, '1', 12.296568, -4.35, 19.95, -4.35, 1.0375345, 0, 0, 0, 1.0, 0, 0, 1, 1, 1, 39.2, 11.76, 1, 1, 0, 1, 0, 1, 0, 1, 0, 1
265, '1', 3.3250924, -1.18, 5.4, -1.18, 1.0296763, 0, 0, 0, 1.0, 0, 0, 1, 1, 1, 10.6, 3.18, 1, 1, 0, 1, 0, 1, 0, 1, 0, 1
275, '1', 31.745221, -11.23, 51.51, -11.23, 1.04, 0, 0, 0, 1.0, 0, 0, 1, 1, 1, 101.2, 30.36, 1, 1, 0, 1, 0, 1, 0, 1, 0, 1
301, '1', 2.9, -0.35, 1.35, -0.35, 1.0092419, 0, 0, 0, 1.0, 0, 0, 1, 1, 1, 2.9, 0.87, 1, 1, 0, 1, 0, 1, 0, 1, 0, 1
302, '1', 2.9, -0.35, 1.35, -0.35, 1.0092381, 0, 0, 0, 1.0, 0, 0, 1, 1, 1, 2.9, 0.87, 1, 1, 0, 1, 0, 1, 0, 1, 0, 1
305, '1', 0.282, -0.05, 0.38, -0.05, 1.0119031, 0, 0, 0, 1.0, 0, 0, 1, 1, 1, 0.282, 0, 1, 1, 0, 1, 0, 1, 0, 1, 0, 1
306, '1', 0.678, -0.12, 0.92, -0.12, 1.0121392, 0, 0, 0, 1.0, 0, 0, 1, 1, 1, 0.678, 0, 1, 1, 0, 1, 0, 1, 0, 1, 0, 1
319, '1', 11.944, -2.07, 16.24, -2.07, 1.04, 0, 0, 0, 1.0, 0, 0, 1, 1, 1, 11.944, 0, 1, 1, 0, 1, 0, 1, 0, 1, 0, 1
350, '1', 4.235, -0.74, 5.76, -0.74, 1.0358033, 0, 0, 0, 1.0, 0, 0, 1, 1, 1, 4.235, 0, 1, 1, 0, 1, 0, 1, 0, 1, 0, 1
351, '1', 1.751, -0.3, 2.38, -0.3, 1.0336051, 0, 0, 0, 1.0, 0, 0, 1, 1, 1, 1.751, 0, 1, 1, 0, 1, 0, 1, 0, 1, 0, 1
352, '1', 4.066, -0.71, 5.53, -0.71, 1.0356815, 0, 0, 0, 1.0, 0, 0, 1, 1, 1, 4.066, 0, 1, 1, 0, 1, 0, 1, 0, 1, 0, 1
353, '1', 20.895, -3.63, 28.42, -3.63, 1.04, 0, 0, 0, 1.0, 0, 0, 1, 1, 1, 20.895, 0, 1, 1, 0, 1, 0, 1, 0, 1, 0, 1
361, '1', 0.50190073, -0.18, 0.81, -0.18, 1.0256494, 0, 0, 0, 1.0, 0, 0, 1, 1, 1, 1.6, 0.48, 1, 1, 0, 1, 0, 1, 0, 1, 0, 1
362, '1', 3.4505675, -1.22, 5.6, -1.22, 1.029503, 0, 0, 0, 1.0, 0, 0, 1, 1, 1, 11, 3.3, 1, 1, 0, 1, 0, 1, 0, 1, 0, 1
363, '1', 1.0038015, -0.36, 1.63, -0.36, 1.0246903, 0, 0, 0, 1.0, 0, 0, 1, 1, 1, 3.2, 0.96, 1, 1, 0, 1, 0, 1, 0, 1, 0, 1
388, '1', 3.1368796, -1.11, 5.09, -1.11, 1.0382646, 0, 0, 0, 1.0, 0, 0, 1, 1, 1, 10, 3, 1, 1, 0, 1, 0, 1, 0, 1, 0, 1
389, '1', 0, 0, 88.23, -19.24, 1.0361578, 0, 0, 0, 1.0, 0, 0, 1, 0, 1, 173.333, 52, 1, 1, 0, 1, 0, 1, 0, 1, 0, 1
390, '1', 0, 0, 88.23, -19.24, 1.0361578, 0, 0, 0, 1.0, 0, 0, 1, 0, 1, 173.333, 52, 1, 1, 0, 1, 0, 1, 0, 1, 0, 1
391, '1', 0, 0, 88.23, -19.24, 1.0361578, 0, 0, 0, 1.0, 0, 0, 1, 0, 1, 173.333, 52, 1, 1, 0, 1, 0, 1, 0, 1, 0, 1
392, '1', 36.513278, -12.92, 59.25, -12.92, 1.04, 0, 0, 0, 1.0, 0, 0, 1, 1, 1, 116.4, 34.92, 1, 1, 0, 1, 0, 1, 0, 1, 0, 1
393, '1', 36.513278, -12.92, 59.25, -12.92, 1.04, 0, 0, 0, 1.0, 0, 0, 1, 1, 1, 116.4, 34.92, 1, 1, 0, 1, 0, 1, 0, 1, 0, 1
394, '1', 36.513278, -12.92, 59.25, -12.92, 1.04, 0, 0, 0, 1.0, 0, 0, 1, 1, 1, 116.4, 34.92, 1, 1, 0, 1, 0, 1, 0, 1, 0, 1
395, '1', 36.513278, -12.92, 59.25, -12.92, 1.04, 0, 0, 0, 1.0, 0, 0, 1, 1, 1, 116.4, 34.92, 1, 1, 0, 1, 0, 1, 0, 1, 0, 1
396, '1', 36.513278, -12.92, 59.25, -12.92, 1.04, 0, 0, 0, 1.0, 0, 0, 1, 1, 1, 116.4, 34.92, 1, 1, 0, 1, 0, 1, 0, 1, 0, 1
409, '1', 31.368796, -11.1, 50.9, -11.1, 1.04, 0, 0, 0, 1.0, 0, 0, 1, 1, 1, 100, 30, 1, 1, 0, 1, 0, 1, 0, 1, 0, 1
410, '1', 41.642301, -15.2, 69.71, -15.2, 1.04, 0, 0, 0, 1.0, 0, 0, 1, 1, 1, 136.95, 41.08, 1, 1, 0, 1, 0, 1, 0, 1, 0, 1
411, '1', 41.642301, -15.2, 69.71, -15.2, 1.04, 0, 0, 0, 1.0, 0, 0, 1, 1, 1, 136.95, 41.08, 1, 1, 0, 1, 0, 1, 0, 1, 0, 1
412, '1', 0, 0, 69.71, -15.2, 1.0386068, 0, 0, 0, 1.0, 0, 0, 1, 0, 1, 136.95, 41.08, 1, 1, 0, 1, 0, 1, 0, 1, 0, 1
413, '1', 0, 3.804, 69.71, -15.2, 1.0386068, 0, 0, 0, 1.0, 0, 0, 1, 0, 1, 136.95, 41.08, 1, 1, 0, 1, 0, 1, 0, 1, 0, 1
414, '1', 34.850732, -12.33, 56.55, -12.33, 1.04, 0, 0, 0, 1.0, 0, 0, 1, 1, 1, 111.1, 33.33, 1, 1, 0, 1, 0, 1, 0, 1, 0, 1
430, '1', 0.282, -0.05, 0.38, -0.05, 1.0381261, 0, 0, 0, 1.0, 0, 0, 1, 1, 1, 0.282, 0, 1, 1, 0, 1, 0, 1, 0, 1, 0, 1
431, '1', 0.932, -0.16, 1.27, -0.16, 1.0383395, 0, 0, 0, 1.0, 0, 0, 1, 1, 1, 0.932, 0, 1, 1, 0, 1, 0, 1, 0, 1, 0, 1
432, '1', 0.339, -0.06, 0.46, -0.06, 1.0380317, 0, 0, 0, 1.0, 0, 0, 1, 1, 1, 0.339, 0, 1, 1, 0, 1, 0, 1, 0, 1, 0, 1
433, '1', 1.892, -0.33, 2.57, -0.33, 1.04, 0, 0, 0, 1.0, 0, 0, 1, 1, 1, 1.892, 0, 1, 1, 0, 1, 0, 1, 0, 1, 0, 1
434, '1', 1.214, -0.21, 1.65, -0.21, 1.0382535, 0, 0, 0, 1.0, 0, 0, 1, 1, 1, 1.214, 0, 1, 1, 0, 1, 0, 1, 0, 1, 0, 1
435, '1', 55.625, -9.65, 75.65, -9.65, 1.04, 0, 0, 0, 1.0, 0, 0, 1, 1, 1, 55.625, 0, 1, 1, 0, 1, 0, 1, 0, 1, 0, 1
436, '1', 55.625, -9.65, 75.65, -9.65, 1.04, 0, 0, 0, 1.0, 0, 0, 1, 1, 1, 55.625, 0, 1, 1, 0, 1, 0, 1, 0, 1, 0, 1
437, '1', 55.625, -9.65, 75.65, -9.65, 1.04, 0, 0, 0, 1.0, 0, 0, 1, 1, 1, 55.625, 0, 1, 1, 0, 1, 0, 1, 0, 1, 0, 1
438, '1', 55.625, -9.65, 75.65, -9.65, 1.04, 0, 0, 0, 1.0, 0, 0, 1, 1, 1, 55.625, 0, 1, 1, 0, 1, 0, 1, 0, 1, 0, 1
439, '1', 55.625, -9.65, 75.65, -9.65, 1.04, 0, 0, 0, 1.0, 0, 0, 1, 1, 1, 55.625, 0, 1, 1, 0, 1, 0, 1, 0, 1, 0, 1
442, '1', 33.878299, -11.99, 54.97, -11.99, 1.04, 0, 0, 0, 1.0, 0, 0, 1, 1, 1, 108, 32.4, 1, 1, 0, 1, 0, 1, 0, 1, 0, 1
443, '1', 0, 32.266, 89.07, -19.43, 1.0311544, 0, 0, 0, 1.0, 0, 0, 1, 0, 1, 175, 52.5, 1, 1, 0, 1, 0, 1, 0, 1, 0, 1
444, '1', 1.0351703, -0.37, 1.68, -0.37, 1.0326415, 0, 0, 0, 1.0, 0, 0, 1, 1, 1, 3.3, 0.99, 1, 1, 0, 1, 0, 1, 0, 1, 0, 1
455, '1', 0, 55.393, 113.42, -24.73, 1.0254739, 0, 0, 0, 1.0, 0, 0, 1, 0, 1, 222.833, 66.85, 1, 1, 0, 1, 0, 1, 0, 1, 0, 1
456, '1', 0, 0, 226.84, -49.47, 1.0254739, 0, 0, 0, 1.0, 0, 0, 1, 0, 1, 445.667, 133.7, 1, 1, 0, 1, 0, 1, 0, 1, 0, 1
458, '1', 0, 0, 0, 0, 1.0215671, 0, 0, 0, 1.0, 0, 0, 1, 0, 1, 109.6, 32.88, 1, 1, 0, 1, 0, 1, 0, 1, 0, 1
463, '1', 7.2, -0.88, 3.36, -0.88, 1.0336922, 0, 0, 0, 1.0, 0, 0, 1, 1, 1, 7.2, 2.16, 1, 1, 0, 1, 0, 1, 0, 1, 0, 1
480, '1', 15.812, -2.74, 21.5, -2.74, 1.04, 0, 0, 0, 1.0, 0, 0, 1, 1, 1, 15.812, 0, 1, 1, 0, 1, 0, 1, 0, 1, 0, 1
481, '1', 12.706, -2.21, 17.28, -2.21, 1.04, 0, 0, 0, 1.0, 0, 0, 1, 1, 1, 12.706, 0, 1, 1, 0, 1, 0, 1, 0, 1, 0, 1
482, '1', 12.706, -2.21, 17.28, -2.21, 1.04, 0, 0, 0, 1.0, 0, 0, 1, 1, 1, 12.706, 0, 1, 1, 0, 1, 0, 1, 0, 1, 0, 1
483, '1', 6.777, -1.18, 9.22, -1.18, 1.04, 0, 0, 0, 1.0, 0, 0, 1, 1, 1, 6.777, 0, 1, 1, 0, 1, 0, 1, 0, 1, 0, 1
484, '1', 7.906, -1.37, 10.75, -1.37, 1.04, 0, 0, 0, 1.0, 0, 0, 1, 1, 1, 7.906, 0, 1, 1, 0, 1, 0, 1, 0, 1, 0, 1
494, '1', 5.8, -0.71, 2.7, -0.71, 1.0286819, 0, 0, 0, 1.0, 0, 0, 1, 1, 1, 5.8, 1.74, 1, 1, 0, 1, 0, 1, 0, 1, 0, 1
497, '1', 16.942, -2.94, 23.04, -2.94, 1.04, 0, 0, 0, 1.0, 0, 0, 1, 1, 1, 16.942, 0, 1, 1, 0, 1, 0, 1, 0, 1, 0, 1
498, '1', 5.082, -0.88, 6.91, -0.88, 1.0349831, 0, 0, 0, 1.0, 0, 0, 1, 1, 1, 5.082, 0, 1, 1, 0, 1, 0, 1, 0, 1, 0, 1
0 / END OF GENERATOR DATA, BEGIN BRANCH DATA
2, 1, '1', 0.000530993, 0.00313968, 0, 76.5, 76.5, 76.5, 0, 0, 0, 0, 1, 1, 0, 1, 1, 0, 1, 0, 1, 0, 1
44, 1, '1', 0.00547862, 0.0502567, 0.0178098, 250, 250, 250, 0, 0, 0, 0, 1, 1, 0, 1, 1, 0, 1, 0, 1, 0, 1
421, 1, '1', 0.00536892, 0.0515552, 0.0166426, 200, 200, 200, 0, 0, 0, 0, 1, 1, 0, 1, 1, 0, 1, 0, 1, 0, 1
4, 3, '1', 0.000692061, 0.00351835, 0, 225.1, 225.1, 225.1, 0, 0, 0, 0, 1, 1, 0, 1, 1, 0, 1, 0, 1, 0, 1
62, 3, '1', 0.0027178, 0.0260978, 0.00842465, 250, 250, 250, 0, 0, 0, 0, 1, 1, 0, 1, 1, 0, 1, 0, 1, 0, 1
3, 479, '1', 0.00725845, 0.0696995, 0.0224998, 145, 145, 145, 0, 0, 0, 0, 1, 1, 0, 1, 1, 0, 1, 0, 1, 0, 1
6, 5, '1', 0.000555857, 0.00356302, 0, 4.5, 4.5, 4.5, 0, 0, 0, 0, 1, 1, 0, 1, 1, 0, 1, 0, 1, 0, 1
316, 5, '1', 0.00244518, 0.0234799, 0.00757958, 145, 145, 145, 0, 0, 0, 0, 1, 1, 0, 1, 1, 0, 1, 0, 1, 0, 1
401, 5, '1', 0.00488619, 0.0469198, 0.0151462, 145, 145, 145, 0, 0, 0, 0, 1, 1, 0, 1, 1, 0, 1, 0, 1, 0, 1
7, 232, '1', 0.00111912, 0.0148076, 0.312051, 1100, 1100, 1100, 0, 0, 0, 0, 1, 1, 0, 1, 1, 0, 1, 0, 1, 0, 1
7, 262, '1', 0.000946655, 0.0137492, 0.239936, 900, 900, 900, 0, 0, 0, 0, 1, 1, 0, 1, 1, 0, 1, 0, 1, 0, 1
8, 287, '1', 0.00372677, 0.0357864, 0.0115523, 300, 300, 300, 0, 0, 0, 0, 1, 1, 0, 1, 1, 0, 1, 0, 1, 0, 1
8, 457, '1', 0.00197391, 0.0189546, 0.00611875, 200, 200, 200, 0, 0, 0, 0, 1, 1, 0, 1, 1, 0, 1, 0, 1, 0, 1
11, 10, '1', 0.000654968, 0.00320079, 0, 4, 4, 4, 0, 0, 0, 0, 1, 1, 0, 1, 1, 0, 1, 0, 1, 0, 1
342, 10, '1', 0.00282453, 0.0271226, 0.00875548, 145, 145, 145, 0, 0, 0, 0, 1, 1, 0, 1, 1, 0, 1, 0, 1, 0, 1
10, 349, '1', 0.00140166, 0.0134595, 0.00434489, 145, 145, 145, 0, 0, 0, 0, 1, 1, 0, 1, 1, 0, 1, 0, 1, 0, 1
13, 12, '1', 0.000623092, 0.00313413, 0, 65.5, 65.5, 65.5, 0, 0, 0, 0, 1, 1, 0, 1, 1, 0, 1, 0, 1, 0, 1
12, 216, '1', 0.00396229, 0.038048, 0.0122823, 270, 270, 270, 0, 0, 0, 0, 1, 1, 0, 1, 1, 0, 1, 0, 1, 0, 1
12, 304, '1', 0.00231014, 0.0211915, 0.00750976, 290, 290, 290, 0, 0, 0, 0, 1, 1, 0, 1, 1, 0, 1, 0, 1, 0, 1
12, 441, '1', 0.00156469, 0.015025, 0.00485023, 280, 280, 280, 0, 0, 0, 0, 1, 1, 0, 1, 1, 0, 1, 0, 1, 0, 1
386, 14, '1', 0.000316955, 0.00454654, 0.0813632, 900, 900, 900, 0, 0, 0, 0, 1, 1, 0, 1, 1, 0, 1, 0, 1, 0, 1
386, 14, '2', 0.00032, 0.00455, 0.08136, 1200, 1200, 1200, 0, 0, 0, 0, 1, 1, 0, 1, 1, 0, 1, 0, 1, 0, 1
15, 91, '1', 0.00479928, 0.0460852, 0.0148768, 160, 160, 160, 0, 0, 0, 0, 1, 1, 0, 1, 1, 0, 1, 0, 1, 0, 1
15, 230, '1', 0.0108937, 0.104607, 0.0337685, 220, 220, 220, 0, 0, 0, 0, 1, 1, 0, 1, 1, 0, 1, 0, 1, 0, 1
367, 15, '1', 0.00191786, 0.0184163, 0.00594499, 330, 330, 330, 0, 0, 0, 0, 1, 1, 0, 1, 1, 0, 1, 0, 1, 0, 1
15, 369, '1', 0.00185435, 0.0170105, 0.0060281, 220, 220, 220, 0, 0, 0, 0, 1, 1, 0, 1, 1, 0, 1, 0, 1, 0, 1
15, 473, '1', 0.00922481, 0.0846215, 0.0299878, 145, 145, 145, 0, 0, 0, 0, 1, 1, 0, 1, 1, 0, 1, 0, 1, 0, 1
20, 19, '1', 0.000541213, 0.00388582, 0, 7.5, 7.5, 7.5, 0, 0, 0, 0, 1, 1, 0, 1, 1, 0, 1, 0, 1, 0, 1
19, 112, '1', 0.00472218, 0.0453449, 0.0146378, 145, 145, 145, 0, 0, 0, 0, 1, 1, 0, 1, 1, 0, 1, 0, 1, 0, 1
193, 19, '1', 0.00222052, 0.0213226, 0.00688319, 270, 270, 270, 0, 0, 0, 0, 1, 1, 0, 1, 1, 0, 1, 0, 1, 0, 1
19, 272, '1', 0.00229314, 0.0220199, 0.00710827, 205, 205, 205, 0, 0, 0, 0, 1, 1, 0, 1, 1, 0, 1, 0, 1, 0, 1
22, 21, '1', 0.000587223, 0.00317397, 0, 254.2, 254.2, 254.2, 0, 0, 0, 0, 1, 1, 0, 1, 1, 0, 1, 0, 1, 0, 1
21, 112, '1', 0.00509204, 0.0488965, 0.0157843, 270, 270, 270, 0, 0, 0, 0, 1, 1, 0, 1, 1, 0, 1, 0, 1, 0, 1
21, 196, '1', 0.00220719, 0.0202471, 0.00717509, 365, 365, 365, 0, 0, 0, 0, 1, 1, 0, 1, 1, 0, 1, 0, 1, 0, 1
151, 23, '1', 0.000181712, 0.00260656, 0.046646, 1050, 1050, 1050, 0, 0, 0, 0, 1, 1, 0, 1, 1, 0, 1, 0, 1, 0, 1
23, 386, '1', 0.001642, 0.023851, 0.416226, 1000, 1000, 1000, 0, 0, 0, 0, 1, 1, 0, 1, 1, 0, 1, 0, 1, 0, 1
23, 464, '1', 0.000947169, 0.0125324, 0.264105, 1000, 1000, 1000, 0, 0, 0, 0, 1, 1, 0, 1, 1, 0, 1, 0, 1, 0, 1
23, 471, '1', 0.000532103, 0.0070405, 0.14837, 1100, 1100, 1100, 0, 0, 0, 0, 1, 1, 0, 1, 1, 0, 1, 0, 1, 0, 1
25, 24, '1', 0.000613052, 0.00362887, 0, 3.6, 3.6, 3.6, 0, 0, 0, 0, 1, 1, 0, 1, 1, 0, 1, 0, 1, 0, 1
26, 24, '1', 0.000563017, 0.00372943, 0, 29.5, 29.5, 29.5, 0, 0, 0, 0, 1, 1, 0, 1, 1, 0, 1, 0, 1, 0, 1
210, 24, '1', 0.00221775, 0.020344, 0.00720941, 270, 270, 270, 0, 0, 0, 0, 1, 1, 0, 1, 1, 0, 1, 0, 1, 0, 1
24, 360, '1', 0.0023654, 0.0227138, 0.00733228, 240, 240, 240, 0, 0, 0, 0, 1, 1, 0, 1, 1, 0, 1, 0, 1, 0, 1
28, 27, '1', 0.000686715, 0.00396302, 0, 108.6, 108.6, 108.6, 0, 0, 0, 0, 1, 1, 0, 1, 1, 0, 1, 0, 1, 0, 1
27, 68, '1', 0.00560738, 0.053845, 0.0173818, 300, 300, 300, 0, 0, 0, 0, 1, 1, 0, 1, 1, 0, 1, 0, 1, 0, 1
27, 382, '1', 0.00336979, 0.0309119, 0.0109544, 185, 185, 185, 0, 0, 0, 0, 1, 1, 0, 1, 1, 0, 1, 0, 1, 0, 1
30, 29, '1', 0.000616364, 0.00329848, 0, 157, 157, 157, 0, 0, 0, 0, 1, 1, 0, 1, 1, 0, 1, 0, 1, 0, 1
454, 29, '1', 0.00246982, 0.0226563, 0.00802886, 300, 300, 300, 0, 0, 0, 0, 1, 1, 0, 1, 1, 0, 1, 0, 1, 0, 1
29, 491, '1', 0.005607, 0.053837, 0.017379, 145, 145, 145, 0, 0, 0, 0, 1, 1, 0, 1, 1, 0, 1, 0, 1, 0, 1
32, 31, '1', 0.000625228, 0.00342917, 0, 15.7, 15.7, 15.7, 0, 0, 0, 0, 1, 1, 0, 1, 1, 0, 1, 0, 1, 0, 1
31, 85, '1', 0.00530344, 0.0509265, 0.0164396, 300, 300, 300, 0, 0, 0, 0, 1, 1, 0, 1, 1, 0, 1, 0, 1, 0, 1
104, 31, '1', 0.00552581, 0.0530617, 0.0171289, 145, 145, 145, 0, 0, 0, 0, 1, 1, 0, 1, 1, 0, 1, 0, 1, 0, 1
31, 189, '1', 0.0057068, 0.0547997, 0.01769, 145, 145, 145, 0, 0, 0, 0, 1, 1, 0, 1, 1, 0, 1, 0, 1, 0, 1
31, 205, '1', 0.00779682, 0.0748692, 0.0241686, 145, 145, 145, 0, 0, 0, 0, 1, 1, 0, 1, 1, 0, 1, 0, 1, 0, 1
31, 218, '1', 0.00827343, 0.0794458, 0.025646, 145, 145, 145, 0, 0, 0, 0, 1, 1, 0, 1, 1, 0, 1, 0, 1, 0, 1
267, 31, '1', 0.00489674, 0.0470211, 0.0151789, 220, 220, 220, 0, 0, 0, 0, 1, 1, 0, 1, 1, 0, 1, 0, 1, 0, 1
34, 33, '1', 0.000624403, 0.00328363, 0, 43.4, 43.4, 43.4, 0, 0, 0, 0, 1, 1, 0, 1, 1, 0, 1, 0, 1, 0, 1
83, 33, '1', 0.00528651, 0.0507639, 0.0163871, 220, 220, 220, 0, 0, 0, 0, 1, 1, 0, 1, 1, 0, 1, 0, 1, 0, 1
112, 33, '1', 0.00706143, 0.0678076, 0.021889, 220, 220, 220, 0, 0, 0, 0, 1, 1, 0, 1, 1, 0, 1, 0, 1, 0, 1
36, 35, '1', 0.000582978, 0.00303006, 0, 62.9, 62.9, 62.9, 0, 0, 0, 0, 1, 1, 0, 1, 1, 0, 1, 0, 1, 0, 1
191, 35, '1', 0.00403801, 0.0370417, 0.0131267, 145, 145, 145, 0, 0, 0, 0, 1, 1, 0, 1, 1, 0, 1, 0, 1, 0, 1
35, 399, '1', 0.005636, 0.054123, 0.017472, 270, 270, 270, 0, 0, 0, 0, 1, 1, 0, 1, 1, 0, 1, 0, 1, 0, 1
38, 37, '1', 0.0005458, 0.00382289, 0, 0.2, 0.2, 0.2, 0, 0, 0, 0, 1, 1, 0, 1, 1, 0, 1, 0, 1, 0, 1
76, 37, '1', 0.00147415, 0.0141555, 0.00456957, 270, 270, 270, 0, 0, 0, 0, 1, 1, 0, 1, 1, 0, 1, 0, 1, 0, 1
37, 176, '1', 0.00303873, 0.0291795, 0.00941948, 275, 275, 275, 0, 0, 0, 0, 1, 1, 0, 1, 1, 0, 1, 0, 1, 0, 1
39, 332, '1', 0.000403375, 0.00578618, 0.103547, 900, 900, 900, 0, 0, 0, 0, 1, 1, 0, 1, 1, 0, 1, 0, 1, 0, 1
39, 428, '1', 0.000521367, 0.00689845, 0.145376, 900, 900, 900, 0, 0, 0, 0, 1, 1, 0, 1, 1, 0, 1, 0, 1, 0, 1
41, 40, '1', 0.000631179, 0.00392265, 0, 97.5, 97.5, 97.5, 0, 0, 0, 0, 1, 1, 0, 1, 1, 0, 1, 0, 1, 0, 1
40, 131, '1', 0.00290861, 0.0266814, 0.00945527, 145, 145, 145, 0, 0, 0, 0, 1, 1, 0, 1, 1, 0, 1, 0, 1, 0, 1
43, 42, '1', 0.000541641, 0.00311887, 0, 7.7, 7.7, 7.7, 0, 0, 0, 0, 1, 1, 0, 1, 1, 0, 1, 0, 1, 0, 1
81, 42, '1', 0.00236124, 0.0216602, 0.00767586, 270, 270, 270, 0, 0, 0, 0, 1, 1, 0, 1, 1, 0, 1, 0, 1, 0, 1
42, 191, '1', 0.0063685, 0.0584198, 0.0207026, 270, 270, 270, 0, 0, 0, 0, 1, 1, 0, 1, 1, 0, 1, 0, 1, 0, 1
45, 44, '1', 0.000636537, 0.00387643, 0, 2.8, 2.8, 2.8, 0, 0, 0, 0, 1, 1, 0, 1, 1, 0, 1, 0, 1, 0, 1
44, 200, '1', 0.00210518, 0.0193113, 0.00684347, 250, 250, 250, 0, 0, 0, 0, 1, 1, 0, 1, 1, 0, 1, 0, 1, 0, 1
47, 46, '1', 0.000602161, 0.00345412, 0, 63, 63, 63, 0, 0, 0, 0, 1, 1, 0, 1, 1, 0, 1, 0, 1, 0, 1
46, 156, '1', 0.00661096, 0.0634819, 0.0204927, 185, 185, 185, 0, 0, 0, 0, 1, 1, 0, 1, 1, 0, 1, 0, 1, 0, 1
238, 46, '1', 0.00313385, 0.0300929, 0.00971433, 185, 185, 185, 0, 0, 0, 0, 1, 1, 0, 1, 1, 0, 1, 0, 1, 0, 1
51, 48, '1', 0.000657783, 0.00367224, 0, 0.6, 0.6, 0.6, 0, 0, 0, 0, 1, 1, 0, 1, 1, 0, 1, 0, 1, 0, 1
52, 48, '1', 0.00062, 0.00334229, 0, 37.9, 37.9, 37.9, 0, 0, 0, 0, 1, 1, 0, 1, 1, 0, 1, 0, 1, 0, 1
358, 48, '1', 0.00450039, 0.0412832, 0.0146298, 270, 270, 270, 0, 0, 0, 0, 1, 1, 0, 1, 1, 0, 1, 0, 1, 0, 1
419, 48, '1', 0.0046368, 0.044525, 0.0143732, 220, 220, 220, 0, 0, 0, 0, 1, 1, 0, 1, 1, 0, 1, 0, 1, 0, 1
54, 53, '1', 0.000680462, 0.00306134, 0, 51.3, 51.3, 51.3, 0, 0, 0, 0, 1, 1, 0, 1, 1, 0, 1, 0, 1, 0, 1
233, 53, '1', 0.00236198, 0.0216671, 0.0076783, 200, 200, 200, 0, 0, 0, 0, 1, 1, 0, 1, 1, 0, 1, 0, 1, 0, 1
53, 276, '1', 0.0015021, 0.0144239, 0.00465621, 200, 200, 200, 0, 0, 0, 0, 1, 1, 0, 1, 1, 0, 1, 0, 1, 0, 1
56, 55, '1', 0.000640992, 0.00331002, 0, 3.1, 3.1, 3.1, 0, 0, 0, 0, 1, 1, 0, 1, 1, 0, 1, 0, 1, 0, 1
55, 66, '1', 0.00432958, 0.041575, 0.0134209, 145, 145, 145, 0, 0, 0, 0, 1, 1, 0, 1, 1, 0, 1, 0, 1, 0, 1
55, 500, '1', 0.00448061, 0.0411018, 0.0145655, 145, 145, 145, 0, 0, 0, 0, 1, 1, 0, 1, 1, 0, 1, 0, 1, 0, 1
57, 123, '1', 0.001682, 0.024427, 0.426274, 1000, 1000, 1000, 0, 0, 0, 0, 1, 1, 0, 1, 1, 0, 1, 0, 1, 0, 1
440, 57, '1', 0.000600772, 0.00872563, 0.15227, 900, 900, 900, 0, 0, 0, 0, 1, 1, 0, 1, 1, 0, 1, 0, 1, 0, 1
59, 58, '1', 0.000620439, 0.00384844, 0, 252.9, 252.9, 252.9, 0, 0, 0, 0, 1, 1, 0, 1, 1, 0, 1, 0, 1, 0, 1
58, 253, '1', 0.00453214, 0.04352, 0.0140487, 200, 200, 200, 0, 0, 0, 0, 1, 1, 0, 1, 1, 0, 1, 0, 1, 0, 1
322, 58, '1', 0.00201876, 0.0193852, 0.00625775, 220, 220, 220, 0, 0, 0, 0, 1, 1, 0, 1, 1, 0, 1, 0, 1, 0, 1
322, 58, '2', 0.00202, 0.01939, 0.00626, 320.3, 320.3, 320.3, 0, 0, 0, 0, 1, 1, 0, 1, 1, 0, 1, 0, 1, 0, 1
61, 60, '1', 0.000528782, 0.00351793, 0, 0.3, 0.3, 0.3, 0, 0, 0, 0, 1, 1, 0, 1, 1, 0, 1, 0, 1, 0, 1
60, 131, '1', 0.0019849, 0.018208, 0.00645249, 185, 185, 185, 0, 0, 0, 0, 1, 1, 0, 1, 1, 0, 1, 0, 1, 0, 1
466, 60, '1', 0.00201135, 0.0193141, 0.00623481, 185, 185, 185, 0, 0, 0, 0, 1, 1, 0, 1, 1, 0, 1, 0, 1, 0, 1
64, 62, '1', 0.000661196, 0.00327389, 0, 45.6, 45.6, 45.6, 0, 0, 0, 0, 1, 1, 0, 1, 1, 0, 1, 0, 1, 0, 1
287, 62, '1', 0.00545324, 0.0523649, 0.016904, 160, 160, 160, 0, 0, 0, 0, 1, 1, 0, 1, 1, 0, 1, 0, 1, 0, 1
62, 457, '1', 0.00726746, 0.069786, 0.0225277, 200, 200, 200, 0, 0, 0, 0, 1, 1, 0, 1, 1, 0, 1, 0, 1, 0, 1
80, 65, '1', 0.000960188, 0.0137734, 0.246483, 1350, 1350, 1350, 0, 0, 0, 0, 1, 1, 0, 1, 1, 0, 1, 0, 1, 0, 1
65, 297, '1', 0.000919634, 0.0131916, 0.236073, 900, 900, 900, 0, 0, 0, 0, 1, 1, 0, 1, 1, 0, 1, 0, 1, 0, 1
67, 66, '1', 0.000661357, 0.00335859, 0, 6.7, 6.7, 6.7, 0, 0, 0, 0, 1, 1, 0, 1, 1, 0, 1, 0, 1, 0, 1
66, 308, '1', 0.00718043, 0.0689503, 0.0222579, 270, 270, 270, 0, 0, 0, 0, 1, 1, 0, 1, 1, 0, 1, 0, 1, 0, 1
69, 68, '1', 0.00066883, 0.00399823, 0, 27.6, 27.6, 27.6, 0, 0, 0, 0, 1, 1, 0, 1, 1, 0, 1, 0, 1, 0, 1
68, 295, '1', 0.00446902, 0.0409955, 0.0145278, 145, 145, 145, 0, 0, 0, 0, 1, 1, 0, 1, 1, 0, 1, 0, 1, 0, 1
68, 314, '1', 0.00180512, 0.0173337, 0.00559552, 220, 220, 220, 0, 0, 0, 0, 1, 1, 0, 1, 1, 0, 1, 0, 1, 0, 1
216, 70, '1', 0.00259564, 0.0238105, 0.00843787, 170, 170, 170, 0, 0, 0, 0, 1, 1, 0, 1, 1, 0, 1, 0, 1, 0, 1
70, 490, '1', 0.00212701, 0.0195116, 0.00691444, 170, 170, 170, 0, 0, 0, 0, 1, 1, 0, 1, 1, 0, 1, 0, 1, 0, 1
75, 74, '1', 0.00058441, 0.0033391, 0, 8.8, 8.8, 8.8, 0, 0, 0, 0, 1, 1, 0, 1, 1, 0, 1, 0, 1, 0, 1
74, 189, '1', 0.00563229, 0.0540843, 0.017459, 220, 220, 220, 0, 0, 0, 0, 1, 1, 0, 1, 1, 0, 1, 0, 1, 0, 1
240, 74, '1', 0.00443354, 0.04067, 0.0144125, 220, 220, 220, 0, 0, 0, 0, 1, 1, 0, 1, 1, 0, 1, 0, 1, 0, 1
77, 76, '1', 0.000695009, 0.00331266, 0, 12.2, 12.2, 12.2, 0, 0, 0, 0, 1, 1, 0, 1, 1, 0, 1, 0, 1, 0, 1
452, 76, '1', 0.002012, 0.019322, 0.006237, 330, 330, 330, 0, 0, 0, 0, 1, 1, 0, 1, 1, 0, 1, 0, 1, 0, 1
79, 78, '1', 0.000622277, 0.00327852, 0, 0.5, 0.5, 0.5, 0, 0, 0, 0, 1, 1, 0, 1, 1, 0, 1, 0, 1, 0, 1
78, 328, '1', 0.00543197, 0.0498288, 0.0176582, 260, 260, 260, 0, 0, 0, 0, 1, 1, 0, 1, 1, 0, 1, 0, 1, 0, 1
78, 387, '1', 0.00235449, 0.022609, 0.00729845, 260, 260, 260, 0, 0, 0, 0, 1, 1, 0, 1, 1, 0, 1, 0, 1, 0, 1
407, 80, '1', 0.000818, 0.010825, 0.228132, 1050, 1050, 1050, 0, 0, 0, 0, 1, 1, 0, 1, 1, 0, 1, 0, 1, 0, 1
149, 81, '1', 0.00287908, 0.0264105, 0.00935925, 145, 145, 145, 0, 0, 0, 0, 1, 1, 0, 1, 1, 0, 1, 0, 1, 0, 1
84, 83, '1', 0.000637555, 0.00365521, 0, 105.4, 105.4, 105.4, 0, 0, 0, 0, 1, 1, 0, 1, 1, 0, 1, 0, 1, 0, 1
83, 342, '1', 0.00411562, 0.0395203, 0.0127576, 145, 145, 145, 0, 0, 0, 0, 1, 1, 0, 1, 1, 0, 1, 0, 1, 0, 1
86, 85, '1', 0.00065231, 0.00390108, 0, 30, 30, 30, 0, 0, 0, 0, 1, 1, 0, 1, 1, 0, 1, 0, 1, 0, 1
272, 85, '1', 0.00441169, 0.0404695, 0.0143414, 270, 270, 270, 0, 0, 0, 0, 1, 1, 0, 1, 1, 0, 1, 0, 1, 0, 1
88, 87, '1', 0.000622526, 0.00356856, 0, 7.7, 7.7, 7.7, 0, 0, 0, 0, 1, 1, 0, 1, 1, 0, 1, 0, 1, 0, 1
87, 141, '1', 0.001846, 0.017727, 0.005723, 520, 520, 520, 0, 0, 0, 0, 1, 1, 0, 1, 1, 0, 1, 0, 1, 0, 1
87, 143, '1', 0.00382, 0.035043, 0.012419, 515, 515, 515, 0, 0, 0, 0, 1, 1, 0, 1, 1, 0, 1, 0, 1, 0, 1
423, 87, '1', 0.00183568, 0.0176272, 0.00569025, 270, 270, 270, 0, 0, 0, 0, 1, 1, 0, 1, 1, 0, 1, 0, 1, 0, 1
90, 89, '1', 0.000554087, 0.00386402, 0, 10.5, 10.5, 10.5, 0, 0, 0, 0, 1, 1, 0, 1, 1, 0, 1, 0, 1, 0, 1
89, 187, '1', 0.00211627, 0.0203216, 0.00656004, 145, 145, 145, 0, 0, 0, 0, 1, 1, 0, 1, 1, 0, 1, 0, 1, 0, 1
89, 457, '1', 0.009012, 0.082666, 0.029295, 145, 145, 145, 0, 0, 0, 0, 1, 1, 0, 1, 1, 0, 1, 0, 1, 0, 1
92, 91, '1', 0.0005717, 0.00361724, 0, 104.2, 104.2, 104.2, 0, 0, 0, 0, 1, 1, 0, 1, 1, 0, 1, 0, 1, 0, 1
91, 133, '1', 0.00504049, 0.0484015, 0.0156245, 270, 270, 270, 0, 0, 0, 0, 1, 1, 0, 1, 1, 0, 1, 0, 1, 0, 1
94, 93, '1', 0.000536047, 0.00328149, 0, 8.2, 8.2, 8.2, 0, 0, 0, 0, 1, 1, 0, 1, 1, 0, 1, 0, 1, 0, 1
269, 93, '1', 0.00392064, 0.035965, 0.0127451, 270, 270, 270, 0, 0, 0, 0, 1, 1, 0, 1, 1, 0, 1, 0, 1, 0, 1
336, 93, '1', 0.00579454, 0.0531548, 0.0188368, 270, 270, 270, 0, 0, 0, 0, 1, 1, 0, 1, 1, 0, 1, 0, 1, 0, 1
96, 95, '1', 0.00056273, 0.00325345, 0, 56.2, 56.2, 56.2, 0, 0, 0, 0, 1, 1, 0, 1, 1, 0, 1, 0, 1, 0, 1
95, 170, '1', 0.0021107, 0.020268, 0.00654275, 145, 145, 145, 0, 0, 0, 0, 1, 1, 0, 1, 1, 0, 1, 0, 1, 0, 1
95, 369, '1', 0.00409437, 0.0393163, 0.0126918, 270, 270, 270, 0, 0, 0, 0, 1, 1, 0, 1, 1, 0, 1, 0, 1, 0, 1
98, 97, '1', 0.000568811, 0.00398603, 0, 66.4, 66.4, 66.4, 0, 0, 0, 0, 1, 1, 0, 1, 1, 0, 1, 0, 1, 0, 1
181, 97, '1', 0.00299237, 0.0287344, 0.00927578, 145, 145, 145, 0, 0, 0, 0, 1, 1, 0, 1, 1, 0, 1, 0, 1, 0, 1
358, 97, '1', 0.00267648, 0.024552, 0.00870064, 270, 270, 270, 0, 0, 0, 0, 1, 1, 0, 1, 1, 0, 1, 0, 1, 0, 1
100, 99, '1', 0.000644448, 0.00362034, 0, 22.7, 22.7, 22.7, 0, 0, 0, 0, 1, 1, 0, 1, 1, 0, 1, 0, 1, 0, 1
101, 99, '1', 0.000699472, 0.00329389, 0, 1.4, 1.4, 1.4, 0, 0, 0, 0, 1, 1, 0, 1, 1, 0, 1, 0, 1, 0, 1
99, 465, '1', 0.0026889, 0.0258203, 0.00833507, 145, 145, 145, 0, 0, 0, 0, 1, 1, 0, 1, 1, 0, 1, 0, 1, 0, 1
472, 99, '1', 0.00331831, 0.0318642, 0.0102861, 145, 145, 145, 0, 0, 0, 0, 1, 1, 0, 1, 1, 0, 1, 0, 1, 0, 1
103, 102, '1', 0.000613984, 0.00387398, 0, 64.6, 64.6, 64.6, 0, 0, 0, 0, 1, 1, 0, 1, 1, 0, 1, 0, 1, 0, 1
102, 308, '1', 0.00564993, 0.0542537, 0.0175137, 270, 270, 270, 0, 0, 0, 0, 1, 1, 0, 1, 1, 0, 1, 0, 1, 0, 1
419, 102, '1', 0.00363843, 0.0349382, 0.0112784, 270, 270, 270, 0, 0, 0, 0, 1, 1, 0, 1, 1, 0, 1, 0, 1, 0, 1
105, 104, '1', 0.000672543, 0.00375095, 0, 144.2, 144.2, 144.2, 0, 0, 0, 0, 1, 1, 0, 1, 1, 0, 1, 0, 1, 0, 1
104, 191, '1', 0.00517651, 0.0474854, 0.0168277, 145, 145, 145, 0, 0, 0, 0, 1, 1, 0, 1, 1, 0, 1, 0, 1, 0, 1
107, 106, '1', 0.000574563, 0.00320633, 0, 24.5, 24.5, 24.5, 0, 0, 0, 0, 1, 1, 0, 1, 1, 0, 1, 0, 1, 0, 1
106, 191, '1', 0.00446795, 0.0429036, 0.0138498, 270, 270, 270, 0, 0, 0, 0, 1, 1, 0, 1, 1, 0, 1, 0, 1, 0, 1
236, 106, '1', 0.00311532, 0.029915, 0.00965689, 270, 270, 270, 0, 0, 0, 0, 1, 1, 0, 1, 1, 0, 1, 0, 1, 0, 1
109, 108, '1', 0.000658007, 0.00300957, 0, 62.9, 62.9, 62.9, 0, 0, 0, 0, 1, 1, 0, 1, 1, 0, 1, 0, 1, 0, 1
108, 472, '1', 0.00203292, 0.0195212, 0.00630167, 185, 185, 185, 0, 0, 0, 0, 1, 1, 0, 1, 1, 0, 1, 0, 1, 0, 1
108, 495, '1', 0.00361075, 0.0346724, 0.0111926, 220, 220, 220, 0, 0, 0, 0, 1, 1, 0, 1, 1, 0, 1, 0, 1, 0, 1
111, 110, '1', 0.000526841, 0.00370826, 0, 87, 87, 87, 0, 0, 0, 0, 1, 1, 0, 1, 1, 0, 1, 0, 1, 0, 1
274, 110, '1', 0.00312607, 0.0300181, 0.0096902, 220, 220, 220, 0, 0, 0, 0, 1, 1, 0, 1, 1, 0, 1, 0, 1, 0, 1
110, 316, '1', 0.00343915, 0.0330245, 0.0106607, 145, 145, 145, 0, 0, 0, 0, 1, 1, 0, 1, 1, 0, 1, 0, 1, 0, 1
113, 112, '1', 0.000644371, 0.00311935, 0, 73, 73, 73, 0, 0, 0, 0, 1, 1, 0, 1, 1, 0, 1, 0, 1, 0, 1
193, 112, '1', 0.00286733, 0.0275336, 0.00888817, 175, 175, 175, 0, 0, 0, 0, 1, 1, 0, 1, 1, 0, 1, 0, 1, 0, 1
112, 236, '1', 0.00632924, 0.0607768, 0.0196194, 300, 300, 300, 0, 0, 0, 0, 1, 1, 0, 1, 1, 0, 1, 0, 1, 0, 1
112, 283, '1', 0.00861853, 0.0827597, 0.0267158, 145, 145, 145, 0, 0, 0, 0, 1, 1, 0, 1, 1, 0, 1, 0, 1, 0, 1
372, 112, '1', 0.0020065, 0.0192675, 0.00621976, 285, 285, 285, 0, 0, 0, 0, 1, 1, 0, 1, 1, 0, 1, 0, 1, 0, 1
112, 499, '1', 0.0055765, 0.0511546, 0.018128, 220, 220, 220, 0, 0, 0, 0, 1, 1, 0, 1, 1, 0, 1, 0, 1, 0, 1
115, 114, '1', 0.000506233, 0.00336036, 0, 6.7, 6.7, 6.7, 0, 0, 0, 0, 1, 1, 0, 1, 1, 0, 1, 0, 1, 0, 1
116, 114, '1', 0.000505013, 0.00341051, 0, 5.3, 5.3, 5.3, 0, 0, 0, 0, 1, 1, 0, 1, 1, 0, 1, 0, 1, 0, 1
114, 191, '1', 0.00555724, 0.0533636, 0.0172264, 145, 145, 145, 0, 0, 0, 0, 1, 1, 0, 1, 1, 0, 1, 0, 1, 0, 1
114, 312, '1', 0.0066089, 0.0634622, 0.0204863, 145, 145, 145, 0, 0, 0, 0, 1, 1, 0, 1, 1, 0, 1, 0, 1, 0, 1
118, 117, '1', 0.000633836, 0.00385096, 0, 12.8, 12.8, 12.8, 0, 0, 0, 0, 1, 1, 0, 1, 1, 0, 1, 0, 1, 0, 1
117, 426, '1', 0.00317216, 0.029099, 0.010312, 145, 145, 145, 0, 0, 0, 0, 1, 1, 0, 1, 1, 0, 1, 0, 1, 0, 1
490, 117, '1', 0.00299873, 0.0275081, 0.0097482, 300, 300, 300, 0, 0, 0, 0, 1, 1, 0, 1, 1, 0, 1, 0, 1, 0, 1
120, 119, '1', 0.000556147, 0.00305904, 0, 46.6, 46.6, 46.6, 0, 0, 0, 0, 1, 1, 0, 1, 1, 0, 1, 0, 1, 0, 1
119, 129, '1', 0.00234965, 0.0215539, 0.0076382, 270, 270, 270, 0, 0, 0, 0, 1, 1, 0, 1, 1, 0, 1, 0, 1, 0, 1
253, 119, '1', 0.00149439, 0.0143499, 0.00463231, 250, 250, 250, 0, 0, 0, 0, 1, 1, 0, 1, 1, 0, 1, 0, 1, 0, 1
122, 121, '1', 0.000554934, 0.00384643, 0, 70.4, 70.4, 70.4, 0, 0, 0, 0, 1, 1, 0, 1, 1, 0, 1, 0, 1, 0, 1
121, 276, '1', 0.00254757, 0.0244631, 0.00789698, 145, 145, 145, 0, 0, 0, 0, 1, 1, 0, 1, 1, 0, 1, 0, 1, 0, 1
121, 287, '1', 0.00708754, 0.0680583, 0.02197, 145, 145, 145, 0, 0, 0, 0, 1, 1, 0, 1, 1, 0, 1, 0, 1, 0, 1
165, 123, '1', 0.000216027, 0.00313758, 0.0547534, 900, 900, 900, 0, 0, 0, 0, 1, 1, 0, 1, 1, 0, 1, 0, 1, 0, 1
124, 260, '1', 0.00203952, 0.0187091, 0.00663005, 220, 220, 220, 0, 0, 0, 0, 1, 1, 0, 1, 1, 0, 1, 0, 1, 0, 1
124, 369, '1', 0.00769284, 0.0705683, 0.0250077, 225, 225, 225, 0, 0, 0, 0, 1, 1, 0, 1, 1, 0, 1, 0, 1, 0, 1
130, 129, '1', 0.000698008, 0.00322102, 0, 166, 166, 166, 0, 0, 0, 0, 1, 1, 0, 1, 1, 0, 1, 0, 1, 0, 1
304, 129, '1', 0.00306297, 0.0294122, 0.0094946, 195, 195, 195, 0, 0, 0, 0, 1, 1, 0, 1, 1, 0, 1, 0, 1, 0, 1
324, 129, '1', 0.00187843, 0.0172313, 0.00610636, 195, 195, 195, 0, 0, 0, 0, 1, 1, 0, 1, 1, 0, 1, 0, 1, 0, 1
132, 131, '1', 0.000673258, 0.00361521, 0, 41.6, 41.6, 41.6, 0, 0, 0, 0, 1, 1, 0, 1, 1, 0, 1, 0, 1, 0, 1
131, 333, '1', 0.00222709, 0.0213857, 0.00690355, 300, 300, 300, 0, 0, 0, 0, 1, 1, 0, 1, 1, 0, 1, 0, 1, 0, 1
134, 133, '1', 0.000515032, 0.00308264, 0, 66, 66, 66, 0, 0, 0, 0, 1, 1, 0, 1, 1, 0, 1, 0, 1, 0, 1
133, 226, '1', 0.00644015, 0.0590771, 0.0209355, 145, 145, 145, 0, 0, 0, 0, 1, 1, 0, 1, 1, 0, 1, 0, 1, 0, 1
133, 369, '1', 0.00615507, 0.056462, 0.0200088, 300, 300, 300, 0, 0, 0, 0, 1, 1, 0, 1, 1, 0, 1, 0, 1, 0, 1
473, 133, '1', 0.00475466, 0.0456568, 0.0147385, 145, 145, 145, 0, 0, 0, 0, 1, 1, 0, 1, 1, 0, 1, 0, 1, 0, 1
136, 135, '1', 0.000548777, 0.0036604, 0, 45.6, 45.6, 45.6, 0, 0, 0, 0, 1, 1, 0, 1, 1, 0, 1, 0, 1, 0, 1
135, 287, '1', 0.00756782, 0.0694215, 0.0246013, 300, 300, 300, 0, 0, 0, 0, 1, 1, 0, 1, 1, 0, 1, 0, 1, 0, 1
135, 457, '1', 0.00686487, 0.0629732, 0.0223162, 220, 220, 220, 0, 0, 0, 0, 1, 1, 0, 1, 1, 0, 1, 0, 1, 0, 1
138, 137, '1', 0.000555555, 0.00378798, 0, 122.9, 122.9, 122.9, 0, 0, 0, 0, 1, 1, 0, 1, 1, 0, 1, 0, 1, 0, 1
137, 214, '1', 0.00312011, 0.029961, 0.00967175, 200, 200, 200, 0, 0, 0, 0, 1, 1, 0, 1, 1, 0, 1, 0, 1, 0, 1
137, 426, '1', 0.00299838, 0.028792, 0.00929439, 145, 145, 145, 0, 0, 0, 0, 1, 1, 0, 1, 1, 0, 1, 0, 1, 0, 1
137, 426, '2', 0.003, 0.02879, 0.00929, 320.3, 320.3, 320.3, 0, 0, 0, 0, 0, 1, 0, 1, 1, 0, 1, 0, 1, 0, 1
140, 139, '1', 0.000600197, 0.00318213, 0, 0.4, 0.4, 0.4, 0, 0, 0, 0, 1, 1, 0, 1, 1, 0, 1, 0, 1, 0, 1
139, 376, '1', 0.00267603, 0.0256967, 0.00829519, 185, 185, 185, 0, 0, 0, 0, 1, 1, 0, 1, 1, 0, 1, 0, 1, 0, 1
429, 139, '1', 0.00146772, 0.0140938, 0.00454964, 185, 185, 185, 0, 0, 0, 0, 1, 1, 0, 1, 1, 0, 1, 0, 1, 0, 1
142, 141, '1', 0.000686707, 0.00341671, 0, 209.8, 209.8, 209.8, 0, 0, 0, 0, 1, 1, 0, 1, 1, 0, 1, 0, 1, 0, 1
300, 141, '1', 0.00267026, 0.024495, 0.00868044, 430, 430, 430, 0, 0, 0, 0, 1, 1, 0, 1, 1, 0, 1, 0, 1, 0, 1
...
0 / END OF BRANCH DATA, BEGIN TRANSFORMER DATA
8, 7, 0, '1', 1, 1, 1, 0, 0, 2, ' ', 1, 1, 1, 0, 1, 0, 1, 0, 1, ' '
0.000355062, 0.0129, 567
1, 138, 0, 567, 567, 567, 0, 0, 1.5, .51, 1.5, .51, 159, 0, 0, 0, 0
1, 345
9, 7, 0, '1', 1, 1, 1, 0, 0, 2, ' ', 1, 1, 1, 0, 1, 0, 1, 0, 1, ' '
0.00012, 0.01362, 900
1, 13.8, 0, 900, 900, 900, 0, 0, 1.5, .51, 1.5, .51, 159, 0, 0, 0, 0
1, 345
9, 7, 0, '2', 1, 1, 1, 0, 0, 2, ' ', 1, 1, 1, 0, 1, 0, 1, 0, 1, ' '
0.00012, 0.01362, 900
1, 13.8, 0, 900, 900, 900, 0, 0, 1.5, .51, 1.5, .51, 159, 0, 0, 0, 0
1, 345
15, 14, 0, '1', 1, 1, 1, 0, 0, 2, ' ', 1, 1, 1, 0, 1, 0, 1, 0, 1, ' '
0.000207947, 0.01122, 682
1, 138, 0, 682, 682, 682, 0, 0, 1.5, .51, 1.5, .51, 159, 0, 0, 0, 0
1, 345
16, 14, 0, '1', 1, 1, 1, 0, 0, 2, ' ', 1, 1, 1, 0, 1, 0, 1, 0, 1, ' '
0.000325948, 0.01202, 596
1, 13.8, 0, 596, 596, 596, 0, 0, 1.5, .51, 1.5, .51, 159, 0, 0, 0, 0
1, 345
17, 14, 0, '1', 1, 1, 1, 0, 0, 2, ' ', 1, 1, 1, 0, 1, 0, 1, 0, 1, ' '
0.000279, 0.01438, 930
1, 13.8, 0, 930, 930, 930, 0, 0, 1.5, .51, 1.5, .51, 159, 0, 0, 0, 0
1, 345
17, 14, 0, '2', 1, 1, 1, 0, 0, 2, ' ', 1, 1, 1, 0, 1, 0, 1, 0, 1, ' '
0.000354, 0.01438, 930
1, 13.8, 0, 930, 930, 930, 0, 0, 1.5, .51, 1.5, .51, 159, 0, 0, 0, 0
1, 345
18, 14, 0, '1', 1, 1, 1, 0, 0, 2, ' ', 1, 1, 1, 0, 1, 0, 1, 0, 1, ' '
0.00141719, 0.05115, 340
1, 13.8, 0, 340, 340, 340, 0, 0, 1.5, .51, 1.5, .51, 159, 0, 0, 0, 0
1, 345
24, 23, 0, '1', 1, 1, 1, 0, 0, 2, ' ', 1, 1, 1, 0, 1, 0, 1, 0, 1, ' '
0.00033, 0.01764, 626
1, 138, 0, 626, 626, 626, 0, 0, 1.5, .51, 1.5, .51, 159, 0, 0, 0, 0
1, 345
40, 39, 0, '1', 1, 1, 1, 0, 0, 2, ' ', 1, 1, 1, 0, 1, 0, 1, 0, 1, ' '
0.0007, 0.02531, 428
1, 138, 0, 428, 428, 428, 0, 0, 1.5, .51, 1.5, .51, 159, 0, 0, 0, 0
1, 345
49, 48, 0, '1', 1, 1, 1, 0, 0, 2, ' ', 1, 1, 1, 0, 1, 0, 1, 0, 1, ' '
0.01331, 0.27853, 57
1, 13.8, 0, 57, 57, 57, 0, 0, 1.5, .51, 1.5, .51, 159, 0, 0, 0, 0
1, 138
50, 48, 0, '1', 1, 1, 1, 0, 0, 2, ' ', 1, 1, 1, 0, 1, 0, 1, 0, 1, ' '
0.00715, 0.16356, 100
1, 13.8, 0, 100, 100, 100, 0, 0, 1.5, .51, 1.5, .51, 159, 0, 0, 0, 0
1, 138
58, 57, 0, '1', 1, 1, 1, 0, 0, 2, ' ', 1, 1, 1, 0, 1, 0, 1, 0, 1, ' '
0.00012, 0.01762, 675
1, 138, 0, 675, 675, 675, 0, 0, 1.5, .51, 1.5, .51, 159, 0, 0, 0, 0
1, 345
58, 57, 0, '2', 1, 1, 1, 0, 0, 2, ' ', 1, 1, 1, 0, 1, 0, 1, 0, 1, ' '
0.00012, 0.01762, 675
1, 138, 0, 675, 675, 675, 0, 0, 1.5, .51, 1.5, .51, 159, 0, 0, 0, 0
1, 345
63, 62, 0, '1', 1, 1, 1, 0, 0, 2, ' ', 1, 1, 1, 0, 1, 0, 1, 0, 1, ' '
0.0032, 0.16353, 70
1, 13.8, 0, 70, 70, 70, 0, 0, 1.5, .51, 1.5, .51, 159, 0, 0, 0, 0
1, 138
66, 65, 0, '1', 1, 1, 1, 0, 0, 2, ' ', 1, 1, 1, 0, 1, 0, 1, 0, 1, ' '
0.000807929, 0.03088, 405
1, 138, 0, 405, 405, 405, 0, 0, 1.5, .51, 1.5, .51, 159, 0, 0, 0, 0
1, 345
71, 70, 0, '1', 1, 1, 1, 0, 0, 2, ' ', 1, 1, 1, 0, 1, 0, 1, 0, 1, ' '
0.00103, 0.04472, 133
1, 13.8, 0, 133, 133, 133, 0, 0, 1.5, .51, 1.5, .51, 159, 0, 0, 0, 0
1, 138
72, 70, 0, '1', 1, 1, 1, 0, 0, 2, ' ', 1, 1, 1, 0, 1, 0, 1, 0, 1, ' '
0.00292, 0.14481, 60
1, 13.8, 0, 60, 60, 60, 0, 0, 1.5, .51, 1.5, .51, 159, 0, 0, 0, 0
1, 138
73, 70, 0, '1', 1, 1, 1, 0, 0, 2, ' ', 1, 1, 1, 0, 1, 0, 1, 0, 1, ' '
0.0126963, 0.27303, 49
...